CRYSTAL
# Primitive lattice vectors in Angstrom
PRIMVEC
 -1.37974341679010 1.37974341679010 1.37974341679010
 1.37974341679010 -1.37974341679010 1.37974341679010
 1.37974341679010 1.37974341679010 -1.37974341679010
# Cartesian coordinates in Angstrom.
PRIMCOORD
 1 1
Fe     0.00000000000000     0.00000000000000     0.00000000000000