CRYSTAL
PRIMVEC
<<<<<<< HEAD
<<<<<<< HEAD
 -2.20449786664523 2.20449786664523 2.20449786664523
 2.20449786664523 -2.20449786664523 2.20449786664523
 2.20449786664523 2.20449786664523 -2.20449786664523
=======
 -2.20449779037020 2.20449779037020 2.20449779037020
 2.20449779037020 -2.20449779037020 2.20449779037020
 2.20449779037020 2.20449779037020 -2.20449779037020
>>>>>>> 7cc294e (Central volumes for PBE Z=97-103, and PBEsol and LDA for Z=1-103)
=======
 -2.20449786664523 2.20449786664523 2.20449786664523
 2.20449786664523 -2.20449786664523 2.20449786664523
 2.20449786664523 2.20449786664523 -2.20449786664523
>>>>>>> e84099c (Update new central volumes and add script for consistency checks)
PRIMCOORD
 1 1
 89     0.00000000000000     0.00000000000000     0.00000000000000
