CRYSTAL
PRIMVEC
<<<<<<< HEAD
 0.00000000000000 3.90951460490148 3.90951460490148
 3.90951460490148 0.00000000000000 3.90951460490148
 3.90951460490148 3.90951460490148 0.00000000000000
PRIMCOORD
 2 1
 89     0.00000000000000     0.00000000000000     0.00000000000000
 89     1.95475730245074     1.95475730245074     1.95475730245074
=======
 0.00000000000000 3.90951437667648 3.90951437667648
 3.90951437667648 0.00000000000000 3.90951437667648
 3.90951437667648 3.90951437667648 0.00000000000000
PRIMCOORD
 2 1
 89     0.00000000000000     0.00000000000000     0.00000000000000
 89     1.95475718833824     1.95475718833824     1.95475718833824
>>>>>>> 7cc294e (Central volumes for PBE Z=97-103, and PBEsol and LDA for Z=1-103)
