CRYSTAL
PRIMVEC
<<<<<<< HEAD
 -1.61220720143514 1.61220720143514 1.61220720143514
 1.61220720143514 -1.61220720143514 1.61220720143514
 1.61220720143514 1.61220720143514 -1.61220720143514
=======
 -1.61220719257461 1.61220719257461 1.61220719257461
 1.61220719257461 -1.61220719257461 1.61220719257461
 1.61220719257461 1.61220719257461 -1.61220719257461
>>>>>>> 7cc294e (Central volumes for PBE Z=97-103, and PBEsol and LDA for Z=1-103)
PRIMCOORD
 1 1
 47     0.00000000000000     0.00000000000000     0.00000000000000
