CRYSTAL
PRIMVEC
<<<<<<< HEAD
<<<<<<< HEAD
 0.00000000000000 3.01956761852472 3.01956761852472
 3.01956761852472 0.00000000000000 3.01956761852472
 3.01956761852472 3.01956761852472 0.00000000000000
PRIMCOORD
 2 1
 47     0.00000000000000     0.00000000000000     0.00000000000000
 47     1.50978380926236     1.50978380926236     1.50978380926236
=======
 0.00000000000000 3.01956761649671 3.01956761649671
 3.01956761649671 0.00000000000000 3.01956761649671
 3.01956761649671 3.01956761649671 0.00000000000000
PRIMCOORD
 2 1
 47     0.00000000000000     0.00000000000000     0.00000000000000
 47     1.50978380824835     1.50978380824835     1.50978380824835
>>>>>>> 7cc294e (Central volumes for PBE Z=97-103, and PBEsol and LDA for Z=1-103)
=======
 0.00000000000000 3.01956761852472 3.01956761852472
 3.01956761852472 0.00000000000000 3.01956761852472
 3.01956761852472 3.01956761852472 0.00000000000000
PRIMCOORD
 2 1
 47     0.00000000000000     0.00000000000000     0.00000000000000
 47     1.50978380926236     1.50978380926236     1.50978380926236
>>>>>>> e84099c (Update new central volumes and add script for consistency checks)
