CRYSTAL
PRIMVEC
<<<<<<< HEAD
 2.68493890374848 0.00000000000000 0.00000000000000
 0.00000000000000 2.68493890374848 0.00000000000000
 0.00000000000000 0.00000000000000 2.68493890374848
=======
 2.68493889654710 0.00000000000000 0.00000000000000
 0.00000000000000 2.68493889654710 0.00000000000000
 0.00000000000000 0.00000000000000 2.68493889654710
>>>>>>> 7cc294e (Central volumes for PBE Z=97-103, and PBEsol and LDA for Z=1-103)
PRIMCOORD
 1 1
 47     0.00000000000000     0.00000000000000     0.00000000000000
