CRYSTAL
PRIMVEC
<<<<<<< HEAD
<<<<<<< HEAD
 0.00000000000000 2.99705405901855 2.99705405901855
 2.99705405901855 0.00000000000000 2.99705405901855
 2.99705405901855 2.99705405901855 0.00000000000000
PRIMCOORD
 2 1
 13     0.00000000000000     0.00000000000000     0.00000000000000
 13     1.49852702950927     1.49852702950927     1.49852702950927
=======
 0.00000000000000 2.99705405250023 2.99705405250023
 2.99705405250023 0.00000000000000 2.99705405250023
 2.99705405250023 2.99705405250023 0.00000000000000
PRIMCOORD
 2 1
 13     0.00000000000000     0.00000000000000     0.00000000000000
 13     1.49852702625011     1.49852702625011     1.49852702625011
>>>>>>> 7cc294e (Central volumes for PBE Z=97-103, and PBEsol and LDA for Z=1-103)
=======
 0.00000000000000 2.99705405901855 2.99705405901855
 2.99705405901855 0.00000000000000 2.99705405901855
 2.99705405901855 2.99705405901855 0.00000000000000
PRIMCOORD
 2 1
 13     0.00000000000000     0.00000000000000     0.00000000000000
 13     1.49852702950927     1.49852702950927     1.49852702950927
>>>>>>> e84099c (Update new central volumes and add script for consistency checks)
