CRYSTAL
PRIMVEC
<<<<<<< HEAD
<<<<<<< HEAD
 2.70097646237390 0.00000000000000 0.00000000000000
 0.00000000000000 2.70097646237390 0.00000000000000
 0.00000000000000 0.00000000000000 2.70097646237390
=======
 2.70097645899441 0.00000000000000 0.00000000000000
 0.00000000000000 2.70097645899441 0.00000000000000
 0.00000000000000 0.00000000000000 2.70097645899441
>>>>>>> 7cc294e (Central volumes for PBE Z=97-103, and PBEsol and LDA for Z=1-103)
=======
 2.70097646237390 0.00000000000000 0.00000000000000
 0.00000000000000 2.70097646237390 0.00000000000000
 0.00000000000000 0.00000000000000 2.70097646237390
>>>>>>> e84099c (Update new central volumes and add script for consistency checks)
PRIMCOORD
 1 1
 13     0.00000000000000     0.00000000000000     0.00000000000000
