CRYSTAL
PRIMVEC
<<<<<<< HEAD
 -1.56475477515262 1.56475477515262 1.56475477515262
 1.56475477515262 -1.56475477515262 1.56475477515262
 1.56475477515262 1.56475477515262 -1.56475477515262
=======
 -1.56475477227056 1.56475477227056 1.56475477227056
 1.56475477227056 -1.56475477227056 1.56475477227056
 1.56475477227056 1.56475477227056 -1.56475477227056
>>>>>>> 7cc294e (Central volumes for PBE Z=97-103, and PBEsol and LDA for Z=1-103)
PRIMCOORD
 1 1
 95     0.00000000000000     0.00000000000000     0.00000000000000
