CRYSTAL
PRIMVEC
<<<<<<< HEAD
 0.00000000000000 2.65487899318165 2.65487899318165
 2.65487899318165 0.00000000000000 2.65487899318165
 2.65487899318165 2.65487899318165 0.00000000000000
PRIMCOORD
 2 1
 95     0.00000000000000     0.00000000000000     0.00000000000000
 95     1.32743949659083     1.32743949659083     1.32743949659083
=======
 0.00000000000000 2.65487885867093 2.65487885867093
 2.65487885867093 0.00000000000000 2.65487885867093
 2.65487885867093 2.65487885867093 0.00000000000000
PRIMCOORD
 2 1
 95     0.00000000000000     0.00000000000000     0.00000000000000
 95     1.32743942933546     1.32743942933546     1.32743942933546
>>>>>>> 7cc294e (Central volumes for PBE Z=97-103, and PBEsol and LDA for Z=1-103)
