CRYSTAL
PRIMVEC
<<<<<<< HEAD
<<<<<<< HEAD
 0.00000000000000 2.01162526204709 2.01162526204709
 2.01162526204709 0.00000000000000 2.01162526204709
 2.01162526204709 2.01162526204709 0.00000000000000
=======
 0.00000000000000 2.01162524764454 2.01162524764454
 2.01162524764454 0.00000000000000 2.01162524764454
 2.01162524764454 2.01162524764454 0.00000000000000
>>>>>>> 7cc294e (Central volumes for PBE Z=97-103, and PBEsol and LDA for Z=1-103)
=======
 0.00000000000000 2.01162526204709 2.01162526204709
 2.01162526204709 0.00000000000000 2.01162526204709
 2.01162526204709 2.01162526204709 0.00000000000000
>>>>>>> e84099c (Update new central volumes and add script for consistency checks)
PRIMCOORD
 1 1
 95     0.00000000000000     0.00000000000000     0.00000000000000
