CRYSTAL
PRIMVEC
<<<<<<< HEAD
 2.48221423905729 0.00000000000000 0.00000000000000
 0.00000000000000 2.48221423905729 0.00000000000000
 0.00000000000000 0.00000000000000 2.48221423905729
=======
 2.48221423105918 0.00000000000000 0.00000000000000
 0.00000000000000 2.48221423105918 0.00000000000000
 0.00000000000000 0.00000000000000 2.48221423105918
>>>>>>> 7cc294e (Central volumes for PBE Z=97-103, and PBEsol and LDA for Z=1-103)
PRIMCOORD
 1 1
 95     0.00000000000000     0.00000000000000     0.00000000000000
