CRYSTAL
PRIMVEC
<<<<<<< HEAD
 -2.34677541159458 2.34677541159458 2.34677541159458
 2.34677541159458 -2.34677541159458 2.34677541159458
 2.34677541159458 2.34677541159458 -2.34677541159458
=======
 -2.34677540331113 2.34677540331113 2.34677540331113
 2.34677540331113 -2.34677540331113 2.34677540331113
 2.34677540331113 2.34677540331113 -2.34677540331113
>>>>>>> 7cc294e (Central volumes for PBE Z=97-103, and PBEsol and LDA for Z=1-103)
PRIMCOORD
 1 1
 18     0.00000000000000     0.00000000000000     0.00000000000000
