CRYSTAL
PRIMVEC
<<<<<<< HEAD
<<<<<<< HEAD
 0.00000000000000 4.58064905778351 4.58064905778351
 4.58064905778351 0.00000000000000 4.58064905778351
 4.58064905778351 4.58064905778351 0.00000000000000
PRIMCOORD
 2 1
 18     0.00000000000000     0.00000000000000     0.00000000000000
 18     2.29032452889176     2.29032452889176     2.29032452889176
=======
 0.00000000000000 4.58064881059975 4.58064881059975
 4.58064881059975 0.00000000000000 4.58064881059975
 4.58064881059975 4.58064881059975 0.00000000000000
PRIMCOORD
 2 1
 18     0.00000000000000     0.00000000000000     0.00000000000000
 18     2.29032440529987     2.29032440529987     2.29032440529987
>>>>>>> 7cc294e (Central volumes for PBE Z=97-103, and PBEsol and LDA for Z=1-103)
=======
 0.00000000000000 4.58064905778351 4.58064905778351
 4.58064905778351 0.00000000000000 4.58064905778351
 4.58064905778351 4.58064905778351 0.00000000000000
PRIMCOORD
 2 1
 18     0.00000000000000     0.00000000000000     0.00000000000000
 18     2.29032452889176     2.29032452889176     2.29032452889176
>>>>>>> e84099c (Update new central volumes and add script for consistency checks)
