CRYSTAL
PRIMVEC
<<<<<<< HEAD
<<<<<<< HEAD
 4.00432792697095 0.00000000000000 0.00000000000000
 0.00000000000000 4.00432792697095 0.00000000000000
 0.00000000000000 0.00000000000000 4.00432792697095
=======
 4.00432787383466 0.00000000000000 0.00000000000000
 0.00000000000000 4.00432787383466 0.00000000000000
 0.00000000000000 0.00000000000000 4.00432787383466
>>>>>>> 7cc294e (Central volumes for PBE Z=97-103, and PBEsol and LDA for Z=1-103)
=======
 4.00432792697095 0.00000000000000 0.00000000000000
 0.00000000000000 4.00432792697095 0.00000000000000
 0.00000000000000 0.00000000000000 4.00432792697095
>>>>>>> e84099c (Update new central volumes and add script for consistency checks)
PRIMCOORD
 1 1
 18     0.00000000000000     0.00000000000000     0.00000000000000
