CRYSTAL
PRIMVEC
<<<<<<< HEAD
 -1.65612127418359 1.65612127418359 1.65612127418359
 1.65612127418359 -1.65612127418359 1.65612127418359
 1.65612127418359 1.65612127418359 -1.65612127418359
=======
 -1.65612127243225 1.65612127243225 1.65612127243225
 1.65612127243225 -1.65612127243225 1.65612127243225
 1.65612127243225 1.65612127243225 -1.65612127243225
>>>>>>> 7cc294e (Central volumes for PBE Z=97-103, and PBEsol and LDA for Z=1-103)
PRIMCOORD
 1 1
 33     0.00000000000000     0.00000000000000     0.00000000000000
