CRYSTAL
PRIMVEC
<<<<<<< HEAD
<<<<<<< HEAD
 0.00000000000000 3.00497165433639 3.00497165433639
 3.00497165433639 0.00000000000000 3.00497165433639
 3.00497165433639 3.00497165433639 0.00000000000000
PRIMCOORD
 2 1
 33     0.00000000000000     0.00000000000000     0.00000000000000
 33     1.50248582716819     1.50248582716819     1.50248582716819
=======
 0.00000000000000 3.00497163374218 3.00497163374218
 3.00497163374218 0.00000000000000 3.00497163374218
 3.00497163374218 3.00497163374218 0.00000000000000
PRIMCOORD
 2 1
 33     0.00000000000000     0.00000000000000     0.00000000000000
 33     1.50248581687109     1.50248581687109     1.50248581687109
>>>>>>> 7cc294e (Central volumes for PBE Z=97-103, and PBEsol and LDA for Z=1-103)
=======
 0.00000000000000 3.00497165433639 3.00497165433639
 3.00497165433639 0.00000000000000 3.00497165433639
 3.00497165433639 3.00497165433639 0.00000000000000
PRIMCOORD
 2 1
 33     0.00000000000000     0.00000000000000     0.00000000000000
 33     1.50248582716819     1.50248582716819     1.50248582716819
>>>>>>> e84099c (Update new central volumes and add script for consistency checks)
