CRYSTAL
PRIMVEC
<<<<<<< HEAD
 0.00000000000000 2.09608952793796 2.09608952793796
 2.09608952793796 0.00000000000000 2.09608952793796
 2.09608952793796 2.09608952793796 0.00000000000000
=======
 0.00000000000000 2.09608952432514 2.09608952432514
 2.09608952432514 0.00000000000000 2.09608952432514
 2.09608952432514 2.09608952432514 0.00000000000000
>>>>>>> 7cc294e (Central volumes for PBE Z=97-103, and PBEsol and LDA for Z=1-103)
PRIMCOORD
 1 1
 33     0.00000000000000     0.00000000000000     0.00000000000000
