CRYSTAL
PRIMVEC
<<<<<<< HEAD
<<<<<<< HEAD
 0.00000000000000 3.96563022845333 3.96563022845333
 3.96563022845333 0.00000000000000 3.96563022845333
 3.96563022845333 3.96563022845333 0.00000000000000
PRIMCOORD
 2 1
 85     0.00000000000000     0.00000000000000     0.00000000000000
 85     1.98281511422666     1.98281511422666     1.98281511422666
=======
 0.00000000000000 3.96563018207087 3.96563018207087
 3.96563018207087 0.00000000000000 3.96563018207087
 3.96563018207087 3.96563018207087 0.00000000000000
PRIMCOORD
 2 1
 85     0.00000000000000     0.00000000000000     0.00000000000000
 85     1.98281509103543     1.98281509103543     1.98281509103543
>>>>>>> 7cc294e (Central volumes for PBE Z=97-103, and PBEsol and LDA for Z=1-103)
=======
 0.00000000000000 3.96563022845333 3.96563022845333
 3.96563022845333 0.00000000000000 3.96563022845333
 3.96563022845333 3.96563022845333 0.00000000000000
PRIMCOORD
 2 1
 85     0.00000000000000     0.00000000000000     0.00000000000000
 85     1.98281511422666     1.98281511422666     1.98281511422666
>>>>>>> e84099c (Update new central volumes and add script for consistency checks)
