CRYSTAL
PRIMVEC
<<<<<<< HEAD
 0.00000000000000 2.61542035432521 2.61542035432521
 2.61542035432521 0.00000000000000 2.61542035432521
 2.61542035432521 2.61542035432521 0.00000000000000
=======
 0.00000000000000 2.61542034073022 2.61542034073022
 2.61542034073022 0.00000000000000 2.61542034073022
 2.61542034073022 2.61542034073022 0.00000000000000
>>>>>>> 7cc294e (Central volumes for PBE Z=97-103, and PBEsol and LDA for Z=1-103)
PRIMCOORD
 1 1
 85     0.00000000000000     0.00000000000000     0.00000000000000
