CRYSTAL
PRIMVEC
<<<<<<< HEAD
 3.50351504711131 0.00000000000000 0.00000000000000
 0.00000000000000 3.50351504711131 0.00000000000000
 0.00000000000000 0.00000000000000 3.50351504711131
=======
 3.50351503065393 0.00000000000000 0.00000000000000
 0.00000000000000 3.50351503065393 0.00000000000000
 0.00000000000000 0.00000000000000 3.50351503065393
>>>>>>> 7cc294e (Central volumes for PBE Z=97-103, and PBEsol and LDA for Z=1-103)
PRIMCOORD
 1 1
 85     0.00000000000000     0.00000000000000     0.00000000000000
