CRYSTAL
PRIMVEC
<<<<<<< HEAD
 -1.62195990766630 1.62195990766630 1.62195990766630
 1.62195990766630 -1.62195990766630 1.62195990766630
 1.62195990766630 1.62195990766630 -1.62195990766630
=======
 -1.62195990623475 1.62195990623475 1.62195990623475
 1.62195990623475 -1.62195990623475 1.62195990623475
 1.62195990623475 1.62195990623475 -1.62195990623475
>>>>>>> 7cc294e (Central volumes for PBE Z=97-103, and PBEsol and LDA for Z=1-103)
PRIMCOORD
 1 1
 79     0.00000000000000     0.00000000000000     0.00000000000000
