CRYSTAL
PRIMVEC
<<<<<<< HEAD
 0.00000000000000 3.01315171904480 3.01315171904480
 3.01315171904480 0.00000000000000 3.01315171904480
 3.01315171904480 3.01315171904480 0.00000000000000
PRIMCOORD
 2 1
 79     0.00000000000000     0.00000000000000     0.00000000000000
 79     1.50657585952240     1.50657585952240     1.50657585952240
=======
 0.00000000000000 3.01315171630564 3.01315171630564
 3.01315171630564 0.00000000000000 3.01315171630564
 3.01315171630564 3.01315171630564 0.00000000000000
PRIMCOORD
 2 1
 79     0.00000000000000     0.00000000000000     0.00000000000000
 79     1.50657585815282     1.50657585815282     1.50657585815282
>>>>>>> 7cc294e (Central volumes for PBE Z=97-103, and PBEsol and LDA for Z=1-103)
