CRYSTAL
PRIMVEC
<<<<<<< HEAD
<<<<<<< HEAD
 2.69518054809299 0.00000000000000 0.00000000000000
 0.00000000000000 2.69518054809299 0.00000000000000
 0.00000000000000 0.00000000000000 2.69518054809299
=======
 2.69518054795181 0.00000000000000 0.00000000000000
 0.00000000000000 2.69518054795181 0.00000000000000
 0.00000000000000 0.00000000000000 2.69518054795181
>>>>>>> 7cc294e (Central volumes for PBE Z=97-103, and PBEsol and LDA for Z=1-103)
=======
 2.69518054809299 0.00000000000000 0.00000000000000
 0.00000000000000 2.69518054809299 0.00000000000000
 0.00000000000000 0.00000000000000 2.69518054809299
>>>>>>> e84099c (Update new central volumes and add script for consistency checks)
PRIMCOORD
 1 1
 79     0.00000000000000     0.00000000000000     0.00000000000000
