CRYSTAL
PRIMVEC
<<<<<<< HEAD
 -1.14858757620719 1.14858757620719 1.14858757620719
 1.14858757620719 -1.14858757620719 1.14858757620719
 1.14858757620719 1.14858757620719 -1.14858757620719
=======
 -1.14858755702661 1.14858755702661 1.14858755702661
 1.14858755702661 -1.14858755702661 1.14858755702661
 1.14858755702661 1.14858755702661 -1.14858755702661
>>>>>>> 7cc294e (Central volumes for PBE Z=97-103, and PBEsol and LDA for Z=1-103)
PRIMCOORD
 1 1
  5     0.00000000000000     0.00000000000000     0.00000000000000
