CRYSTAL
PRIMVEC
<<<<<<< HEAD
 0.00000000000000 2.01594938466167 2.01594938466167
 2.01594938466167 0.00000000000000 2.01594938466167
 2.01594938466167 2.01594938466167 0.00000000000000
PRIMCOORD
 2 1
  5     0.00000000000000     0.00000000000000     0.00000000000000
  5     1.00797469233083     1.00797469233083     1.00797469233083
=======
 0.00000000000000 2.01594938393223 2.01594938393223
 2.01594938393223 0.00000000000000 2.01594938393223
 2.01594938393223 2.01594938393223 0.00000000000000
PRIMCOORD
 2 1
  5     0.00000000000000     0.00000000000000     0.00000000000000
  5     1.00797469196612     1.00797469196612     1.00797469196612
>>>>>>> 7cc294e (Central volumes for PBE Z=97-103, and PBEsol and LDA for Z=1-103)
