CRYSTAL
PRIMVEC
<<<<<<< HEAD
<<<<<<< HEAD
 -2.44057259885029 2.44057259885029 2.44057259885029
 2.44057259885029 -2.44057259885029 2.44057259885029
 2.44057259885029 2.44057259885029 -2.44057259885029
=======
 -2.44057258872107 2.44057258872107 2.44057258872107
 2.44057258872107 -2.44057258872107 2.44057258872107
 2.44057258872107 2.44057258872107 -2.44057258872107
>>>>>>> 7cc294e (Central volumes for PBE Z=97-103, and PBEsol and LDA for Z=1-103)
=======
 -2.44057259885029 2.44057259885029 2.44057259885029
 2.44057259885029 -2.44057259885029 2.44057259885029
 2.44057259885029 2.44057259885029 -2.44057259885029
>>>>>>> e84099c (Update new central volumes and add script for consistency checks)
PRIMCOORD
 1 1
 56     0.00000000000000     0.00000000000000     0.00000000000000
