CRYSTAL
PRIMVEC
<<<<<<< HEAD
<<<<<<< HEAD
 0.00000000000000 3.70274244359159 3.70274244359159
 3.70274244359159 0.00000000000000 3.70274244359159
 3.70274244359159 3.70274244359159 0.00000000000000
PRIMCOORD
 2 1
 56     0.00000000000000     0.00000000000000     0.00000000000000
 56     1.85137122179579     1.85137122179579     1.85137122179579
=======
 0.00000000000000 3.70274235719911 3.70274235719911
 3.70274235719911 0.00000000000000 3.70274235719911
 3.70274235719911 3.70274235719911 0.00000000000000
PRIMCOORD
 2 1
 56     0.00000000000000     0.00000000000000     0.00000000000000
 56     1.85137117859956     1.85137117859956     1.85137117859956
>>>>>>> 7cc294e (Central volumes for PBE Z=97-103, and PBEsol and LDA for Z=1-103)
=======
 0.00000000000000 3.70274244359159 3.70274244359159
 3.70274244359159 0.00000000000000 3.70274244359159
 3.70274244359159 3.70274244359159 0.00000000000000
PRIMCOORD
 2 1
 56     0.00000000000000     0.00000000000000     0.00000000000000
 56     1.85137122179579     1.85137122179579     1.85137122179579
>>>>>>> e84099c (Update new central volumes and add script for consistency checks)
