CRYSTAL
PRIMVEC
<<<<<<< HEAD
<<<<<<< HEAD
 3.81616265218422 0.00000000000000 0.00000000000000
 0.00000000000000 3.81616265218422 0.00000000000000
 0.00000000000000 0.00000000000000 3.81616265218422
=======
 3.81616263991596 0.00000000000000 0.00000000000000
 0.00000000000000 3.81616263991596 0.00000000000000
 0.00000000000000 0.00000000000000 3.81616263991596
>>>>>>> 7cc294e (Central volumes for PBE Z=97-103, and PBEsol and LDA for Z=1-103)
=======
 3.81616265218422 0.00000000000000 0.00000000000000
 0.00000000000000 3.81616265218422 0.00000000000000
 0.00000000000000 0.00000000000000 3.81616265218422
>>>>>>> e84099c (Update new central volumes and add script for consistency checks)
PRIMCOORD
 1 1
 56     0.00000000000000     0.00000000000000     0.00000000000000
