CRYSTAL
PRIMVEC
<<<<<<< HEAD
<<<<<<< HEAD
 0.00000000000000 2.43706739159359 2.43706739159359
 2.43706739159359 0.00000000000000 2.43706739159359
 2.43706739159359 2.43706739159359 0.00000000000000
PRIMCOORD
 2 1
  4     0.00000000000000     0.00000000000000     0.00000000000000
  4     1.21853369579679     1.21853369579679     1.21853369579679
=======
 0.00000000000000 2.43706738456564 2.43706738456564
 2.43706738456564 0.00000000000000 2.43706738456564
 2.43706738456564 2.43706738456564 0.00000000000000
PRIMCOORD
 2 1
  4     0.00000000000000     0.00000000000000     0.00000000000000
  4     1.21853369228282     1.21853369228282     1.21853369228282
>>>>>>> 7cc294e (Central volumes for PBE Z=97-103, and PBEsol and LDA for Z=1-103)
=======
 0.00000000000000 2.43706739159359 2.43706739159359
 2.43706739159359 0.00000000000000 2.43706739159359
 2.43706739159359 2.43706739159359 0.00000000000000
PRIMCOORD
 2 1
  4     0.00000000000000     0.00000000000000     0.00000000000000
  4     1.21853369579679     1.21853369579679     1.21853369579679
>>>>>>> e84099c (Update new central volumes and add script for consistency checks)
