CRYSTAL
PRIMVEC
<<<<<<< HEAD
 2.16614731025666 0.00000000000000 0.00000000000000
 0.00000000000000 2.16614731025666 0.00000000000000
 0.00000000000000 0.00000000000000 2.16614731025666
=======
 2.16614728403229 0.00000000000000 0.00000000000000
 0.00000000000000 2.16614728403229 0.00000000000000
 0.00000000000000 0.00000000000000 2.16614728403229
>>>>>>> 7cc294e (Central volumes for PBE Z=97-103, and PBEsol and LDA for Z=1-103)
PRIMCOORD
 1 1
  4     0.00000000000000     0.00000000000000     0.00000000000000
