CRYSTAL
PRIMVEC
<<<<<<< HEAD
<<<<<<< HEAD
 -1.95859024901261 1.95859024901261 1.95859024901261
 1.95859024901261 -1.95859024901261 1.95859024901261
 1.95859024901261 1.95859024901261 -1.95859024901261
=======
 -1.95859021413898 1.95859021413898 1.95859021413898
 1.95859021413898 -1.95859021413898 1.95859021413898
 1.95859021413898 1.95859021413898 -1.95859021413898
>>>>>>> 7cc294e (Central volumes for PBE Z=97-103, and PBEsol and LDA for Z=1-103)
=======
 -1.95859024901261 1.95859024901261 1.95859024901261
 1.95859024901261 -1.95859024901261 1.95859024901261
 1.95859024901261 1.95859024901261 -1.95859024901261
>>>>>>> e84099c (Update new central volumes and add script for consistency checks)
PRIMCOORD
 1 1
 83     0.00000000000000     0.00000000000000     0.00000000000000
