CRYSTAL
PRIMVEC
<<<<<<< HEAD
<<<<<<< HEAD
 0.00000000000000 3.58418726782034 3.58418726782034
 3.58418726782034 0.00000000000000 3.58418726782034
 3.58418726782034 3.58418726782034 0.00000000000000
PRIMCOORD
 2 1
 83     0.00000000000000     0.00000000000000     0.00000000000000
 83     1.79209363391017     1.79209363391017     1.79209363391017
=======
 0.00000000000000 3.58418725065272 3.58418725065272
 3.58418725065272 0.00000000000000 3.58418725065272
 3.58418725065272 3.58418725065272 0.00000000000000
PRIMCOORD
 2 1
 83     0.00000000000000     0.00000000000000     0.00000000000000
 83     1.79209362532636     1.79209362532636     1.79209362532636
>>>>>>> 7cc294e (Central volumes for PBE Z=97-103, and PBEsol and LDA for Z=1-103)
=======
 0.00000000000000 3.58418726782034 3.58418726782034
 3.58418726782034 0.00000000000000 3.58418726782034
 3.58418726782034 3.58418726782034 0.00000000000000
PRIMCOORD
 2 1
 83     0.00000000000000     0.00000000000000     0.00000000000000
 83     1.79209363391017     1.79209363391017     1.79209363391017
>>>>>>> e84099c (Update new central volumes and add script for consistency checks)
