CRYSTAL
PRIMVEC
<<<<<<< HEAD
<<<<<<< HEAD
 3.22284026832583 0.00000000000000 0.00000000000000
 0.00000000000000 3.22284026832583 0.00000000000000
 0.00000000000000 0.00000000000000 3.22284026832583
=======
 3.22284026421780 0.00000000000000 0.00000000000000
 0.00000000000000 3.22284026421780 0.00000000000000
 0.00000000000000 0.00000000000000 3.22284026421780
>>>>>>> 7cc294e (Central volumes for PBE Z=97-103, and PBEsol and LDA for Z=1-103)
=======
 3.22284026832583 0.00000000000000 0.00000000000000
 0.00000000000000 3.22284026832583 0.00000000000000
 0.00000000000000 0.00000000000000 3.22284026832583
>>>>>>> e84099c (Update new central volumes and add script for consistency checks)
PRIMCOORD
 1 1
 83     0.00000000000000     0.00000000000000     0.00000000000000
