CRYSTAL
PRIMVEC
<<<<<<< HEAD
<<<<<<< HEAD
 -1.58746515668981 1.58746515668981 1.58746515668981
 1.58746515668981 -1.58746515668981 1.58746515668981
 1.58746515668981 1.58746515668981 -1.58746515668981
=======
 -1.58746514686219 1.58746514686219 1.58746514686219
 1.58746514686219 -1.58746514686219 1.58746514686219
 1.58746514686219 1.58746514686219 -1.58746514686219
>>>>>>> 7cc294e (Central volumes for PBE Z=97-103, and PBEsol and LDA for Z=1-103)
=======
 -1.58746515668981 1.58746515668981 1.58746515668981
 1.58746515668981 -1.58746515668981 1.58746515668981
 1.58746515668981 1.58746515668981 -1.58746515668981
>>>>>>> e84099c (Update new central volumes and add script for consistency checks)
PRIMCOORD
 1 1
 97     0.00000000000000     0.00000000000000     0.00000000000000
