CRYSTAL
PRIMVEC
<<<<<<< HEAD
 0.00000000000000 2.66559372674001 2.66559372674001
 2.66559372674001 0.00000000000000 2.66559372674001
 2.66559372674001 2.66559372674001 0.00000000000000
PRIMCOORD
 2 1
 97     0.00000000000000     0.00000000000000     0.00000000000000
 97     1.33279686337001     1.33279686337001     1.33279686337001
=======
 0.00000000000000 2.66559347230161 2.66559347230161
 2.66559347230161 0.00000000000000 2.66559347230161
 2.66559347230161 2.66559347230161 0.00000000000000
PRIMCOORD
 2 1
 97     0.00000000000000     0.00000000000000     0.00000000000000
 97     1.33279673615081     1.33279673615081     1.33279673615081
>>>>>>> 7cc294e (Central volumes for PBE Z=97-103, and PBEsol and LDA for Z=1-103)
