CRYSTAL
PRIMVEC
<<<<<<< HEAD
<<<<<<< HEAD
 0.00000000000000 2.03026293589188 2.03026293589188
 2.03026293589188 0.00000000000000 2.03026293589188
 2.03026293589188 2.03026293589188 0.00000000000000
=======
 0.00000000000000 2.03026292387565 2.03026292387565
 2.03026292387565 0.00000000000000 2.03026292387565
 2.03026292387565 2.03026292387565 0.00000000000000
>>>>>>> 7cc294e (Central volumes for PBE Z=97-103, and PBEsol and LDA for Z=1-103)
=======
 0.00000000000000 2.03026293589188 2.03026293589188
 2.03026293589188 0.00000000000000 2.03026293589188
 2.03026293589188 2.03026293589188 0.00000000000000
>>>>>>> e84099c (Update new central volumes and add script for consistency checks)
PRIMCOORD
 1 1
 97     0.00000000000000     0.00000000000000     0.00000000000000
