CRYSTAL
PRIMVEC
<<<<<<< HEAD
<<<<<<< HEAD
 2.52015646146558 0.00000000000000 0.00000000000000
 0.00000000000000 2.52015646146558 0.00000000000000
 0.00000000000000 0.00000000000000 2.52015646146558
=======
 2.52015645990133 0.00000000000000 0.00000000000000
 0.00000000000000 2.52015645990133 0.00000000000000
 0.00000000000000 0.00000000000000 2.52015645990133
>>>>>>> 7cc294e (Central volumes for PBE Z=97-103, and PBEsol and LDA for Z=1-103)
=======
 2.52015646146558 0.00000000000000 0.00000000000000
 0.00000000000000 2.52015646146558 0.00000000000000
 0.00000000000000 0.00000000000000 2.52015646146558
>>>>>>> e84099c (Update new central volumes and add script for consistency checks)
PRIMCOORD
 1 1
 97     0.00000000000000     0.00000000000000     0.00000000000000
