CRYSTAL
PRIMVEC
<<<<<<< HEAD
 -1.82289019563887 1.82289019563887 1.82289019563887
 1.82289019563887 -1.82289019563887 1.82289019563887
 1.82289019563887 1.82289019563887 -1.82289019563887
=======
 -1.82289019522646 1.82289019522646 1.82289019522646
 1.82289019522646 -1.82289019522646 1.82289019522646
 1.82289019522646 1.82289019522646 -1.82289019522646
>>>>>>> 7cc294e (Central volumes for PBE Z=97-103, and PBEsol and LDA for Z=1-103)
PRIMCOORD
 1 1
 35     0.00000000000000     0.00000000000000     0.00000000000000
