CRYSTAL
PRIMVEC
<<<<<<< HEAD
<<<<<<< HEAD
 0.00000000000000 3.41929890541445 3.41929890541445
 3.41929890541445 0.00000000000000 3.41929890541445
 3.41929890541445 3.41929890541445 0.00000000000000
PRIMCOORD
 2 1
 35     0.00000000000000     0.00000000000000     0.00000000000000
 35     1.70964945270723     1.70964945270723     1.70964945270723
=======
 0.00000000000000 3.41929890245938 3.41929890245938
 3.41929890245938 0.00000000000000 3.41929890245938
 3.41929890245938 3.41929890245938 0.00000000000000
PRIMCOORD
 2 1
 35     0.00000000000000     0.00000000000000     0.00000000000000
 35     1.70964945122969     1.70964945122969     1.70964945122969
>>>>>>> 7cc294e (Central volumes for PBE Z=97-103, and PBEsol and LDA for Z=1-103)
=======
 0.00000000000000 3.41929890541445 3.41929890541445
 3.41929890541445 0.00000000000000 3.41929890541445
 3.41929890541445 3.41929890541445 0.00000000000000
PRIMCOORD
 2 1
 35     0.00000000000000     0.00000000000000     0.00000000000000
 35     1.70964945270723     1.70964945270723     1.70964945270723
>>>>>>> e84099c (Update new central volumes and add script for consistency checks)
