CRYSTAL
PRIMVEC
<<<<<<< HEAD
 3.02102778984837 0.00000000000000 0.00000000000000
 0.00000000000000 3.02102778984837 0.00000000000000
 0.00000000000000 0.00000000000000 3.02102778984837
=======
 3.02102777900281 0.00000000000000 0.00000000000000
 0.00000000000000 3.02102777900281 0.00000000000000
 0.00000000000000 0.00000000000000 3.02102777900281
>>>>>>> 7cc294e (Central volumes for PBE Z=97-103, and PBEsol and LDA for Z=1-103)
PRIMCOORD
 1 1
 35     0.00000000000000     0.00000000000000     0.00000000000000
