CRYSTAL
PRIMVEC
<<<<<<< HEAD
<<<<<<< HEAD
 -1.17131993346742 1.17131993346742 1.17131993346742
 1.17131993346742 -1.17131993346742 1.17131993346742
 1.17131993346742 1.17131993346742 -1.17131993346742
=======
 -1.17131992337269 1.17131992337269 1.17131992337269
 1.17131992337269 -1.17131992337269 1.17131992337269
 1.17131992337269 1.17131992337269 -1.17131992337269
>>>>>>> 7cc294e (Central volumes for PBE Z=97-103, and PBEsol and LDA for Z=1-103)
=======
 -1.17131993346742 1.17131993346742 1.17131993346742
 1.17131993346742 -1.17131993346742 1.17131993346742
 1.17131993346742 1.17131993346742 -1.17131993346742
>>>>>>> e84099c (Update new central volumes and add script for consistency checks)
PRIMCOORD
 1 1
  6     0.00000000000000     0.00000000000000     0.00000000000000
