CRYSTAL
PRIMVEC
<<<<<<< HEAD
 0.00000000000000 1.77705313520732 1.77705313520732
 1.77705313520732 0.00000000000000 1.77705313520732
 1.77705313520732 1.77705313520732 0.00000000000000
PRIMCOORD
 2 1
  6     0.00000000000000     0.00000000000000     0.00000000000000
  6     0.88852656760366     0.88852656760366     0.88852656760366
=======
 0.00000000000000 1.77705313103285 1.77705313103285
 1.77705313103285 0.00000000000000 1.77705313103285
 1.77705313103285 1.77705313103285 0.00000000000000
PRIMCOORD
 2 1
  6     0.00000000000000     0.00000000000000     0.00000000000000
  6     0.88852656551643     0.88852656551643     0.88852656551643
>>>>>>> 7cc294e (Central volumes for PBE Z=97-103, and PBEsol and LDA for Z=1-103)
