CRYSTAL
PRIMVEC
<<<<<<< HEAD
 0.00000000000000 1.51748134692132 1.51748134692132
 1.51748134692132 0.00000000000000 1.51748134692132
 1.51748134692132 1.51748134692132 0.00000000000000
=======
 0.00000000000000 1.51748132387549 1.51748132387549
 1.51748132387549 0.00000000000000 1.51748132387549
 1.51748132387549 1.51748132387549 0.00000000000000
>>>>>>> 7cc294e (Central volumes for PBE Z=97-103, and PBEsol and LDA for Z=1-103)
PRIMCOORD
 1 1
  6     0.00000000000000     0.00000000000000     0.00000000000000
