CRYSTAL
PRIMVEC
<<<<<<< HEAD
 0.00000000000000 4.21714985125300 4.21714985125300
 4.21714985125300 0.00000000000000 4.21714985125300
 4.21714985125300 4.21714985125300 0.00000000000000
PRIMCOORD
 2 1
 20     0.00000000000000     0.00000000000000     0.00000000000000
 20     2.10857492562650     2.10857492562650     2.10857492562650
=======
 0.00000000000000 4.21714983954210 4.21714983954210
 4.21714983954210 0.00000000000000 4.21714983954210
 4.21714983954210 4.21714983954210 0.00000000000000
PRIMCOORD
 2 1
 20     0.00000000000000     0.00000000000000     0.00000000000000
 20     2.10857491977105     2.10857491977105     2.10857491977105
>>>>>>> 7cc294e (Central volumes for PBE Z=97-103, and PBEsol and LDA for Z=1-103)
