CRYSTAL
PRIMVEC
<<<<<<< HEAD
 0.00000000000000 2.72759562646894 2.72759562646894
 2.72759562646894 0.00000000000000 2.72759562646894
 2.72759562646894 2.72759562646894 0.00000000000000
=======
 0.00000000000000 2.72759562447418 2.72759562447418
 2.72759562447418 0.00000000000000 2.72759562447418
 2.72759562447418 2.72759562447418 0.00000000000000
>>>>>>> 7cc294e (Central volumes for PBE Z=97-103, and PBEsol and LDA for Z=1-103)
PRIMCOORD
 1 1
 20     0.00000000000000     0.00000000000000     0.00000000000000
