CRYSTAL
PRIMVEC
<<<<<<< HEAD
<<<<<<< HEAD
 3.45739379194381 0.00000000000000 0.00000000000000
 0.00000000000000 3.45739379194381 0.00000000000000
 0.00000000000000 0.00000000000000 3.45739379194381
=======
 3.45739373446386 0.00000000000000 0.00000000000000
 0.00000000000000 3.45739373446386 0.00000000000000
 0.00000000000000 0.00000000000000 3.45739373446386
>>>>>>> 7cc294e (Central volumes for PBE Z=97-103, and PBEsol and LDA for Z=1-103)
=======
 3.45739379194381 0.00000000000000 0.00000000000000
 0.00000000000000 3.45739379194381 0.00000000000000
 0.00000000000000 0.00000000000000 3.45739379194381
>>>>>>> e84099c (Update new central volumes and add script for consistency checks)
PRIMCOORD
 1 1
 20     0.00000000000000     0.00000000000000     0.00000000000000
