CRYSTAL
PRIMVEC
<<<<<<< HEAD
 -1.74721650241598 1.74721650241598 1.74721650241598
 1.74721650241598 -1.74721650241598 1.74721650241598
 1.74721650241598 1.74721650241598 -1.74721650241598
=======
 -1.74721650230558 1.74721650230558 1.74721650230558
 1.74721650230558 -1.74721650230558 1.74721650230558
 1.74721650230558 1.74721650230558 -1.74721650230558
>>>>>>> 7cc294e (Central volumes for PBE Z=97-103, and PBEsol and LDA for Z=1-103)
PRIMCOORD
 1 1
 48     0.00000000000000     0.00000000000000     0.00000000000000
