CRYSTAL
PRIMVEC
<<<<<<< HEAD
<<<<<<< HEAD
 0.00000000000000 3.22370374379558 3.22370374379558
 3.22370374379558 0.00000000000000 3.22370374379558
 3.22370374379558 3.22370374379558 0.00000000000000
PRIMCOORD
 2 1
 48     0.00000000000000     0.00000000000000     0.00000000000000
 48     1.61185187189779     1.61185187189779     1.61185187189779
=======
 0.00000000000000 3.22370373910119 3.22370373910119
 3.22370373910119 0.00000000000000 3.22370373910119
 3.22370373910119 3.22370373910119 0.00000000000000
PRIMCOORD
 2 1
 48     0.00000000000000     0.00000000000000     0.00000000000000
 48     1.61185186955059     1.61185186955059     1.61185186955059
>>>>>>> 7cc294e (Central volumes for PBE Z=97-103, and PBEsol and LDA for Z=1-103)
=======
 0.00000000000000 3.22370374379558 3.22370374379558
 3.22370374379558 0.00000000000000 3.22370374379558
 3.22370374379558 3.22370374379558 0.00000000000000
PRIMCOORD
 2 1
 48     0.00000000000000     0.00000000000000     0.00000000000000
 48     1.61185187189779     1.61185187189779     1.61185187189779
>>>>>>> e84099c (Update new central volumes and add script for consistency checks)
