CRYSTAL
PRIMVEC
<<<<<<< HEAD
 0.00000000000000 2.18806384894510 2.18806384894510
 2.18806384894510 0.00000000000000 2.18806384894510
 2.18806384894510 2.18806384894510 0.00000000000000
=======
 0.00000000000000 2.18806384665389 2.18806384665389
 2.18806384665389 0.00000000000000 2.18806384665389
 2.18806384665389 2.18806384665389 0.00000000000000
>>>>>>> 7cc294e (Central volumes for PBE Z=97-103, and PBEsol and LDA for Z=1-103)
PRIMCOORD
 1 1
 48     0.00000000000000     0.00000000000000     0.00000000000000
