CRYSTAL
PRIMVEC
<<<<<<< HEAD
 2.90619155839690 0.00000000000000 0.00000000000000
 0.00000000000000 2.90619155839690 0.00000000000000
 0.00000000000000 0.00000000000000 2.90619155839690
=======
 2.90619154035982 0.00000000000000 0.00000000000000
 0.00000000000000 2.90619154035982 0.00000000000000
 0.00000000000000 0.00000000000000 2.90619154035982
>>>>>>> 7cc294e (Central volumes for PBE Z=97-103, and PBEsol and LDA for Z=1-103)
PRIMCOORD
 1 1
 48     0.00000000000000     0.00000000000000     0.00000000000000
