CRYSTAL
PRIMVEC
<<<<<<< HEAD
<<<<<<< HEAD
 -1.82467409526469 1.82467409526469 1.82467409526469
 1.82467409526469 -1.82467409526469 1.82467409526469
 1.82467409526469 1.82467409526469 -1.82467409526469
=======
 -1.82467409511224 1.82467409511224 1.82467409511224
 1.82467409511224 -1.82467409511224 1.82467409511224
 1.82467409511224 1.82467409511224 -1.82467409511224
>>>>>>> 7cc294e (Central volumes for PBE Z=97-103, and PBEsol and LDA for Z=1-103)
=======
 -1.82467409526469 1.82467409526469 1.82467409526469
 1.82467409526469 -1.82467409526469 1.82467409526469
 1.82467409526469 1.82467409526469 -1.82467409526469
>>>>>>> e84099c (Update new central volumes and add script for consistency checks)
PRIMCOORD
 1 1
 58     0.00000000000000     0.00000000000000     0.00000000000000
