CRYSTAL
PRIMVEC
<<<<<<< HEAD
<<<<<<< HEAD
 2.83899277372358 0.00000000000000 0.00000000000000
 0.00000000000000 2.83899277372358 0.00000000000000
 0.00000000000000 0.00000000000000 2.83899277372358
=======
 2.83899272123544 0.00000000000000 0.00000000000000
 0.00000000000000 2.83899272123544 0.00000000000000
 0.00000000000000 0.00000000000000 2.83899272123544
>>>>>>> 7cc294e (Central volumes for PBE Z=97-103, and PBEsol and LDA for Z=1-103)
=======
 2.83899277372358 0.00000000000000 0.00000000000000
 0.00000000000000 2.83899277372358 0.00000000000000
 0.00000000000000 0.00000000000000 2.83899277372358
>>>>>>> e84099c (Update new central volumes and add script for consistency checks)
PRIMCOORD
 1 1
 58     0.00000000000000     0.00000000000000     0.00000000000000
