CRYSTAL
PRIMVEC
<<<<<<< HEAD
 -1.62608138039354 1.62608138039354 1.62608138039354
 1.62608138039354 -1.62608138039354 1.62608138039354
 1.62608138039354 1.62608138039354 -1.62608138039354
=======
 -1.62608132167816 1.62608132167816 1.62608132167816
 1.62608132167816 -1.62608132167816 1.62608132167816
 1.62608132167816 1.62608132167816 -1.62608132167816
>>>>>>> 7cc294e (Central volumes for PBE Z=97-103, and PBEsol and LDA for Z=1-103)
PRIMCOORD
 1 1
 98     0.00000000000000     0.00000000000000     0.00000000000000
