CRYSTAL
PRIMVEC
<<<<<<< HEAD
 0.00000000000000 2.71044939628150 2.71044939628150
 2.71044939628150 0.00000000000000 2.71044939628150
 2.71044939628150 2.71044939628150 0.00000000000000
PRIMCOORD
 2 1
 98     0.00000000000000     0.00000000000000     0.00000000000000
 98     1.35522469814075     1.35522469814075     1.35522469814075
=======
 0.00000000000000 2.71044926141726 2.71044926141726
 2.71044926141726 0.00000000000000 2.71044926141726
 2.71044926141726 2.71044926141726 0.00000000000000
PRIMCOORD
 2 1
 98     0.00000000000000     0.00000000000000     0.00000000000000
 98     1.35522463070863     1.35522463070863     1.35522463070863
>>>>>>> 7cc294e (Central volumes for PBE Z=97-103, and PBEsol and LDA for Z=1-103)
