CRYSTAL
PRIMVEC
<<<<<<< HEAD
 2.57930409415471 0.00000000000000 0.00000000000000
 0.00000000000000 2.57930409415471 0.00000000000000
 0.00000000000000 0.00000000000000 2.57930409415471
=======
 2.57930408182315 0.00000000000000 0.00000000000000
 0.00000000000000 2.57930408182315 0.00000000000000
 0.00000000000000 0.00000000000000 2.57930408182315
>>>>>>> 7cc294e (Central volumes for PBE Z=97-103, and PBEsol and LDA for Z=1-103)
PRIMCOORD
 1 1
 98     0.00000000000000     0.00000000000000     0.00000000000000
