CRYSTAL
PRIMVEC
<<<<<<< HEAD
 -1.68931062756563 1.68931062756563 1.68931062756563
 1.68931062756563 -1.68931062756563 1.68931062756563
 1.68931062756563 1.68931062756563 -1.68931062756563
=======
 -1.68931062586451 1.68931062586451 1.68931062586451
 1.68931062586451 -1.68931062586451 1.68931062586451
 1.68931062586451 1.68931062586451 -1.68931062586451
>>>>>>> 7cc294e (Central volumes for PBE Z=97-103, and PBEsol and LDA for Z=1-103)
PRIMCOORD
 1 1
 17     0.00000000000000     0.00000000000000     0.00000000000000
