CRYSTAL
PRIMVEC
<<<<<<< HEAD
<<<<<<< HEAD
 0.00000000000000 3.15091288433472 3.15091288433472
 3.15091288433472 0.00000000000000 3.15091288433472
 3.15091288433472 3.15091288433472 0.00000000000000
PRIMCOORD
 2 1
 17     0.00000000000000     0.00000000000000     0.00000000000000
 17     1.57545644216736     1.57545644216736     1.57545644216736
=======
 0.00000000000000 3.15091288195447 3.15091288195447
 3.15091288195447 0.00000000000000 3.15091288195447
 3.15091288195447 3.15091288195447 0.00000000000000
PRIMCOORD
 2 1
 17     0.00000000000000     0.00000000000000     0.00000000000000
 17     1.57545644097724     1.57545644097724     1.57545644097724
>>>>>>> 7cc294e (Central volumes for PBE Z=97-103, and PBEsol and LDA for Z=1-103)
=======
 0.00000000000000 3.15091288433472 3.15091288433472
 3.15091288433472 0.00000000000000 3.15091288433472
 3.15091288433472 3.15091288433472 0.00000000000000
PRIMCOORD
 2 1
 17     0.00000000000000     0.00000000000000     0.00000000000000
 17     1.57545644216736     1.57545644216736     1.57545644216736
>>>>>>> e84099c (Update new central volumes and add script for consistency checks)
