CRYSTAL
PRIMVEC
<<<<<<< HEAD
 0.00000000000000 2.11931184953867 2.11931184953867
 2.11931184953867 0.00000000000000 2.11931184953867
 2.11931184953867 2.11931184953867 0.00000000000000
=======
 0.00000000000000 2.11931184607488 2.11931184607488
 2.11931184607488 0.00000000000000 2.11931184607488
 2.11931184607488 2.11931184607488 0.00000000000000
>>>>>>> 7cc294e (Central volumes for PBE Z=97-103, and PBEsol and LDA for Z=1-103)
PRIMCOORD
 1 1
 17     0.00000000000000     0.00000000000000     0.00000000000000
