CRYSTAL
PRIMVEC
<<<<<<< HEAD
<<<<<<< HEAD
 2.78544688725021 0.00000000000000 0.00000000000000
 0.00000000000000 2.78544688725021 0.00000000000000
 0.00000000000000 0.00000000000000 2.78544688725021
=======
 2.78544688508588 0.00000000000000 0.00000000000000
 0.00000000000000 2.78544688508588 0.00000000000000
 0.00000000000000 0.00000000000000 2.78544688508588
>>>>>>> 7cc294e (Central volumes for PBE Z=97-103, and PBEsol and LDA for Z=1-103)
=======
 2.78544688725021 0.00000000000000 0.00000000000000
 0.00000000000000 2.78544688725021 0.00000000000000
 0.00000000000000 0.00000000000000 2.78544688725021
>>>>>>> e84099c (Update new central volumes and add script for consistency checks)
PRIMCOORD
 1 1
 17     0.00000000000000     0.00000000000000     0.00000000000000
