CRYSTAL
PRIMVEC
<<<<<<< HEAD
 -1.56895065947859 1.56895065947859 1.56895065947859
 1.56895065947859 -1.56895065947859 1.56895065947859
 1.56895065947859 1.56895065947859 -1.56895065947859
=======
 -1.56895064728856 1.56895064728856 1.56895064728856
 1.56895064728856 -1.56895064728856 1.56895064728856
 1.56895064728856 1.56895064728856 -1.56895064728856
>>>>>>> 7cc294e (Central volumes for PBE Z=97-103, and PBEsol and LDA for Z=1-103)
PRIMCOORD
 1 1
 96     0.00000000000000     0.00000000000000     0.00000000000000
