CRYSTAL
PRIMVEC
<<<<<<< HEAD
<<<<<<< HEAD
 0.00000000000000 2.64498532302466 2.64498532302466
 2.64498532302466 0.00000000000000 2.64498532302466
 2.64498532302466 2.64498532302466 0.00000000000000
PRIMCOORD
 2 1
 96     0.00000000000000     0.00000000000000     0.00000000000000
 96     1.32249266151233     1.32249266151233     1.32249266151233
=======
 0.00000000000000 2.64498517641314 2.64498517641314
 2.64498517641314 0.00000000000000 2.64498517641314
 2.64498517641314 2.64498517641314 0.00000000000000
PRIMCOORD
 2 1
 96     0.00000000000000     0.00000000000000     0.00000000000000
 96     1.32249258820657     1.32249258820657     1.32249258820657
>>>>>>> 7cc294e (Central volumes for PBE Z=97-103, and PBEsol and LDA for Z=1-103)
=======
 0.00000000000000 2.64498532302466 2.64498532302466
 2.64498532302466 0.00000000000000 2.64498532302466
 2.64498532302466 2.64498532302466 0.00000000000000
PRIMCOORD
 2 1
 96     0.00000000000000     0.00000000000000     0.00000000000000
 96     1.32249266151233     1.32249266151233     1.32249266151233
>>>>>>> e84099c (Update new central volumes and add script for consistency checks)
