CRYSTAL
PRIMVEC
<<<<<<< HEAD
<<<<<<< HEAD
 2.48905510702970 0.00000000000000 0.00000000000000
 0.00000000000000 2.48905510702970 0.00000000000000
 0.00000000000000 0.00000000000000 2.48905510702970
=======
 2.48905510277852 0.00000000000000 0.00000000000000
 0.00000000000000 2.48905510277852 0.00000000000000
 0.00000000000000 0.00000000000000 2.48905510277852
>>>>>>> 7cc294e (Central volumes for PBE Z=97-103, and PBEsol and LDA for Z=1-103)
=======
 2.48905510702970 0.00000000000000 0.00000000000000
 0.00000000000000 2.48905510702970 0.00000000000000
 0.00000000000000 0.00000000000000 2.48905510702970
>>>>>>> e84099c (Update new central volumes and add script for consistency checks)
PRIMCOORD
 1 1
 96     0.00000000000000     0.00000000000000     0.00000000000000
