CRYSTAL
PRIMVEC
<<<<<<< HEAD
<<<<<<< HEAD
 -1.36188779003285 1.36188779003285 1.36188779003285
 1.36188779003285 -1.36188779003285 1.36188779003285
 1.36188779003285 1.36188779003285 -1.36188779003285
=======
 -1.36188778744843 1.36188778744843 1.36188778744843
 1.36188778744843 -1.36188778744843 1.36188778744843
 1.36188778744843 1.36188778744843 -1.36188778744843
>>>>>>> 7cc294e (Central volumes for PBE Z=97-103, and PBEsol and LDA for Z=1-103)
=======
 -1.36188779003285 1.36188779003285 1.36188779003285
 1.36188779003285 -1.36188779003285 1.36188779003285
 1.36188779003285 1.36188779003285 -1.36188779003285
>>>>>>> e84099c (Update new central volumes and add script for consistency checks)
PRIMCOORD
 1 1
 27     0.00000000000000     0.00000000000000     0.00000000000000
