CRYSTAL
PRIMVEC
<<<<<<< HEAD
 0.00000000000000 2.42113843647342 2.42113843647342
 2.42113843647342 0.00000000000000 2.42113843647342
 2.42113843647342 2.42113843647342 0.00000000000000
PRIMCOORD
 2 1
 27     0.00000000000000     0.00000000000000     0.00000000000000
 27     1.21056921823671     1.21056921823671     1.21056921823671
=======
 0.00000000000000 2.42113840828901 2.42113840828901
 2.42113840828901 0.00000000000000 2.42113840828901
 2.42113840828901 2.42113840828901 0.00000000000000
PRIMCOORD
 2 1
 27     0.00000000000000     0.00000000000000     0.00000000000000
 27     1.21056920414451     1.21056920414451     1.21056920414451
>>>>>>> 7cc294e (Central volumes for PBE Z=97-103, and PBEsol and LDA for Z=1-103)
