CRYSTAL
PRIMVEC
<<<<<<< HEAD
 0.00000000000000 1.70332239596470 1.70332239596470
 1.70332239596470 0.00000000000000 1.70332239596470
 1.70332239596470 1.70332239596470 0.00000000000000
=======
 0.00000000000000 1.70332239268065 1.70332239268065
 1.70332239268065 0.00000000000000 1.70332239268065
 1.70332239268065 1.70332239268065 0.00000000000000
>>>>>>> 7cc294e (Central volumes for PBE Z=97-103, and PBEsol and LDA for Z=1-103)
PRIMCOORD
 1 1
 27     0.00000000000000     0.00000000000000     0.00000000000000
