CRYSTAL
PRIMVEC
<<<<<<< HEAD
 -1.40713891137479 1.40713891137479 1.40713891137479
 1.40713891137479 -1.40713891137479 1.40713891137479
 1.40713891137479 1.40713891137479 -1.40713891137479
=======
 -1.40713891014869 1.40713891014869 1.40713891014869
 1.40713891014869 -1.40713891014869 1.40713891014869
 1.40713891014869 1.40713891014869 -1.40713891014869
>>>>>>> 7cc294e (Central volumes for PBE Z=97-103, and PBEsol and LDA for Z=1-103)
PRIMCOORD
 1 1
 24     0.00000000000000     0.00000000000000     0.00000000000000
