CRYSTAL
PRIMVEC
<<<<<<< HEAD
<<<<<<< HEAD
 0.00000000000000 2.50395941786031 2.50395941786031
 2.50395941786031 0.00000000000000 2.50395941786031
 2.50395941786031 2.50395941786031 0.00000000000000
PRIMCOORD
 2 1
 24     0.00000000000000     0.00000000000000     0.00000000000000
 24     1.25197970893015     1.25197970893015     1.25197970893015
=======
 0.00000000000000 2.50395941712379 2.50395941712379
 2.50395941712379 0.00000000000000 2.50395941712379
 2.50395941712379 2.50395941712379 0.00000000000000
PRIMCOORD
 2 1
 24     0.00000000000000     0.00000000000000     0.00000000000000
 24     1.25197970856190     1.25197970856190     1.25197970856190
>>>>>>> 7cc294e (Central volumes for PBE Z=97-103, and PBEsol and LDA for Z=1-103)
=======
 0.00000000000000 2.50395941786031 2.50395941786031
 2.50395941786031 0.00000000000000 2.50395941786031
 2.50395941786031 2.50395941786031 0.00000000000000
PRIMCOORD
 2 1
 24     0.00000000000000     0.00000000000000     0.00000000000000
 24     1.25197970893015     1.25197970893015     1.25197970893015
>>>>>>> e84099c (Update new central volumes and add script for consistency checks)
