CRYSTAL
PRIMVEC
<<<<<<< HEAD
 0.00000000000000 1.78945697953903 1.78945697953903
 1.78945697953903 0.00000000000000 1.78945697953903
 1.78945697953903 1.78945697953903 0.00000000000000
=======
 0.00000000000000 1.78945697652109 1.78945697652109
 1.78945697652109 0.00000000000000 1.78945697652109
 1.78945697652109 1.78945697652109 0.00000000000000
>>>>>>> 7cc294e (Central volumes for PBE Z=97-103, and PBEsol and LDA for Z=1-103)
PRIMCOORD
 1 1
 24     0.00000000000000     0.00000000000000     0.00000000000000
