CRYSTAL
PRIMVEC
<<<<<<< HEAD
 2.30755310051945 0.00000000000000 0.00000000000000
 0.00000000000000 2.30755310051945 0.00000000000000
 0.00000000000000 0.00000000000000 2.30755310051945
=======
 2.30755308359217 0.00000000000000 0.00000000000000
 0.00000000000000 2.30755308359217 0.00000000000000
 0.00000000000000 0.00000000000000 2.30755308359217
>>>>>>> 7cc294e (Central volumes for PBE Z=97-103, and PBEsol and LDA for Z=1-103)
PRIMCOORD
 1 1
 24     0.00000000000000     0.00000000000000     0.00000000000000
