CRYSTAL
PRIMVEC
<<<<<<< HEAD
 -3.00466329380157 3.00466329380157 3.00466329380157
 3.00466329380157 -3.00466329380157 3.00466329380157
 3.00466329380157 3.00466329380157 -3.00466329380157
=======
 -3.00466326068952 3.00466326068952 3.00466326068952
 3.00466326068952 -3.00466326068952 3.00466326068952
 3.00466326068952 3.00466326068952 -3.00466326068952
>>>>>>> 7cc294e (Central volumes for PBE Z=97-103, and PBEsol and LDA for Z=1-103)
PRIMCOORD
 1 1
 55     0.00000000000000     0.00000000000000     0.00000000000000
