CRYSTAL
PRIMVEC
<<<<<<< HEAD
 0.00000000000000 5.56294309166909 5.56294309166909
 5.56294309166909 0.00000000000000 5.56294309166909
 5.56294309166909 5.56294309166909 0.00000000000000
PRIMCOORD
 2 1
 55     0.00000000000000     0.00000000000000     0.00000000000000
 55     2.78147154583455     2.78147154583455     2.78147154583455
=======
 0.00000000000000 5.56294307752720 5.56294307752720
 5.56294307752720 0.00000000000000 5.56294307752720
 5.56294307752720 5.56294307752720 0.00000000000000
PRIMCOORD
 2 1
 55     0.00000000000000     0.00000000000000     0.00000000000000
 55     2.78147153876360     2.78147153876360     2.78147153876360
>>>>>>> 7cc294e (Central volumes for PBE Z=97-103, and PBEsol and LDA for Z=1-103)
