CRYSTAL
PRIMVEC
<<<<<<< HEAD
 4.92035739262419 0.00000000000000 0.00000000000000
 0.00000000000000 4.92035739262419 0.00000000000000
 0.00000000000000 0.00000000000000 4.92035739262419
=======
 4.92035738455827 0.00000000000000 0.00000000000000
 0.00000000000000 4.92035738455827 0.00000000000000
 0.00000000000000 0.00000000000000 4.92035738455827
>>>>>>> 7cc294e (Central volumes for PBE Z=97-103, and PBEsol and LDA for Z=1-103)
PRIMCOORD
 1 1
 55     0.00000000000000     0.00000000000000     0.00000000000000
