CRYSTAL
PRIMVEC
<<<<<<< HEAD
<<<<<<< HEAD
 -1.41607826052861 1.41607826052861 1.41607826052861
 1.41607826052861 -1.41607826052861 1.41607826052861
 1.41607826052861 1.41607826052861 -1.41607826052861
=======
 -1.41607825922693 1.41607825922693 1.41607825922693
 1.41607825922693 -1.41607825922693 1.41607825922693
 1.41607825922693 1.41607825922693 -1.41607825922693
>>>>>>> 7cc294e (Central volumes for PBE Z=97-103, and PBEsol and LDA for Z=1-103)
=======
 -1.41607826052861 1.41607826052861 1.41607826052861
 1.41607826052861 -1.41607826052861 1.41607826052861
 1.41607826052861 1.41607826052861 -1.41607826052861
>>>>>>> e84099c (Update new central volumes and add script for consistency checks)
PRIMCOORD
 1 1
 29     0.00000000000000     0.00000000000000     0.00000000000000
