CRYSTAL
PRIMVEC
<<<<<<< HEAD
 0.00000000000000 2.61615139174472 2.61615139174472
 2.61615139174472 0.00000000000000 2.61615139174472
 2.61615139174472 2.61615139174472 0.00000000000000
PRIMCOORD
 2 1
 29     0.00000000000000     0.00000000000000     0.00000000000000
 29     1.30807569587236     1.30807569587236     1.30807569587236
=======
 0.00000000000000 2.61615138643487 2.61615138643487
 2.61615138643487 0.00000000000000 2.61615138643487
 2.61615138643487 2.61615138643487 0.00000000000000
PRIMCOORD
 2 1
 29     0.00000000000000     0.00000000000000     0.00000000000000
 29     1.30807569321744     1.30807569321744     1.30807569321744
>>>>>>> 7cc294e (Central volumes for PBE Z=97-103, and PBEsol and LDA for Z=1-103)
