CRYSTAL
PRIMVEC
<<<<<<< HEAD
 0.00000000000000 1.78174702174605 1.78174702174605
 1.78174702174605 0.00000000000000 1.78174702174605
 1.78174702174605 1.78174702174605 0.00000000000000
=======
 0.00000000000000 1.78174702153587 1.78174702153587
 1.78174702153587 0.00000000000000 1.78174702153587
 1.78174702153587 1.78174702153587 0.00000000000000
>>>>>>> 7cc294e (Central volumes for PBE Z=97-103, and PBEsol and LDA for Z=1-103)
PRIMCOORD
 1 1
 29     0.00000000000000     0.00000000000000     0.00000000000000
