CRYSTAL
PRIMVEC
<<<<<<< HEAD
<<<<<<< HEAD
 2.35967642513743 0.00000000000000 0.00000000000000
 0.00000000000000 2.35967642513743 0.00000000000000
 0.00000000000000 0.00000000000000 2.35967642513743
=======
 2.35967642469746 0.00000000000000 0.00000000000000
 0.00000000000000 2.35967642469746 0.00000000000000
 0.00000000000000 0.00000000000000 2.35967642469746
>>>>>>> 7cc294e (Central volumes for PBE Z=97-103, and PBEsol and LDA for Z=1-103)
=======
 2.35967642513743 0.00000000000000 0.00000000000000
 0.00000000000000 2.35967642513743 0.00000000000000
 0.00000000000000 0.00000000000000 2.35967642513743
>>>>>>> e84099c (Update new central volumes and add script for consistency checks)
PRIMCOORD
 1 1
 29     0.00000000000000     0.00000000000000     0.00000000000000
