CRYSTAL
PRIMVEC
<<<<<<< HEAD
 -1.91977579260805 1.91977579260805 1.91977579260805
 1.91977579260805 -1.91977579260805 1.91977579260805
 1.91977579260805 1.91977579260805 -1.91977579260805
=======
 -1.91977579218468 1.91977579218468 1.91977579218468
 1.91977579218468 -1.91977579218468 1.91977579218468
 1.91977579218468 1.91977579218468 -1.91977579218468
>>>>>>> 7cc294e (Central volumes for PBE Z=97-103, and PBEsol and LDA for Z=1-103)
PRIMCOORD
 1 1
 66     0.00000000000000     0.00000000000000     0.00000000000000
