CRYSTAL
PRIMVEC
<<<<<<< HEAD
 0.00000000000000 2.75748115135406 2.75748115135406
 2.75748115135406 0.00000000000000 2.75748115135406
 2.75748115135406 2.75748115135406 0.00000000000000
PRIMCOORD
 2 1
 66     0.00000000000000     0.00000000000000     0.00000000000000
 66     1.37874057567703     1.37874057567703     1.37874057567703
=======
 0.00000000000000 2.75748114193046 2.75748114193046
 2.75748114193046 0.00000000000000 2.75748114193046
 2.75748114193046 2.75748114193046 0.00000000000000
PRIMCOORD
 2 1
 66     0.00000000000000     0.00000000000000     0.00000000000000
 66     1.37874057096523     1.37874057096523     1.37874057096523
>>>>>>> 7cc294e (Central volumes for PBE Z=97-103, and PBEsol and LDA for Z=1-103)
