CRYSTAL
PRIMVEC
<<<<<<< HEAD
 2.92416345048874 0.00000000000000 0.00000000000000
 0.00000000000000 2.92416345048874 0.00000000000000
 0.00000000000000 0.00000000000000 2.92416345048874
=======
 2.92416344064207 0.00000000000000 0.00000000000000
 0.00000000000000 2.92416344064207 0.00000000000000
 0.00000000000000 0.00000000000000 2.92416344064207
>>>>>>> 7cc294e (Central volumes for PBE Z=97-103, and PBEsol and LDA for Z=1-103)
PRIMCOORD
 1 1
 66     0.00000000000000     0.00000000000000     0.00000000000000
