CRYSTAL
PRIMVEC
<<<<<<< HEAD
<<<<<<< HEAD
 -1.96958118570050 1.96958118570050 1.96958118570050
 1.96958118570050 -1.96958118570050 1.96958118570050
 1.96958118570050 1.96958118570050 -1.96958118570050
=======
 -1.96958118437318 1.96958118437318 1.96958118437318
 1.96958118437318 -1.96958118437318 1.96958118437318
 1.96958118437318 1.96958118437318 -1.96958118437318
>>>>>>> 7cc294e (Central volumes for PBE Z=97-103, and PBEsol and LDA for Z=1-103)
=======
 -1.96958118570050 1.96958118570050 1.96958118570050
 1.96958118570050 -1.96958118570050 1.96958118570050
 1.96958118570050 1.96958118570050 -1.96958118570050
>>>>>>> e84099c (Update new central volumes and add script for consistency checks)
PRIMCOORD
 1 1
 68     0.00000000000000     0.00000000000000     0.00000000000000
