CRYSTAL
PRIMVEC
<<<<<<< HEAD
 0.00000000000000 2.92447398825166 2.92447398825166
 2.92447398825166 0.00000000000000 2.92447398825166
 2.92447398825166 2.92447398825166 0.00000000000000
PRIMCOORD
 2 1
 68     0.00000000000000     0.00000000000000     0.00000000000000
 68     1.46223699412583     1.46223699412583     1.46223699412583
=======
 0.00000000000000 2.92447398020285 2.92447398020285
 2.92447398020285 0.00000000000000 2.92447398020285
 2.92447398020285 2.92447398020285 0.00000000000000
PRIMCOORD
 2 1
 68     0.00000000000000     0.00000000000000     0.00000000000000
 68     1.46223699010142     1.46223699010142     1.46223699010142
>>>>>>> 7cc294e (Central volumes for PBE Z=97-103, and PBEsol and LDA for Z=1-103)
