CRYSTAL
PRIMVEC
<<<<<<< HEAD
 3.14840217586159 0.00000000000000 0.00000000000000
 0.00000000000000 3.14840217586159 0.00000000000000
 0.00000000000000 0.00000000000000 3.14840217586159
=======
 3.14840217288694 0.00000000000000 0.00000000000000
 0.00000000000000 3.14840217288694 0.00000000000000
 0.00000000000000 0.00000000000000 3.14840217288694
>>>>>>> 7cc294e (Central volumes for PBE Z=97-103, and PBEsol and LDA for Z=1-103)
PRIMCOORD
 1 1
 68     0.00000000000000     0.00000000000000     0.00000000000000
