CRYSTAL
PRIMVEC
<<<<<<< HEAD
 -1.69266479161008 1.69266479161008 1.69266479161008
 1.69266479161008 -1.69266479161008 1.69266479161008
 1.69266479161008 1.69266479161008 -1.69266479161008
=======
 -1.69266446249070 1.69266446249070 1.69266446249070
 1.69266446249070 -1.69266446249070 1.69266446249070
 1.69266446249070 1.69266446249070 -1.69266446249070
>>>>>>> 7cc294e (Central volumes for PBE Z=97-103, and PBEsol and LDA for Z=1-103)
PRIMCOORD
 1 1
 99     0.00000000000000     0.00000000000000     0.00000000000000
