CRYSTAL
PRIMVEC
<<<<<<< HEAD
 0.00000000000000 2.79748890277732 2.79748890277732
 2.79748890277732 0.00000000000000 2.79748890277732
 2.79748890277732 2.79748890277732 0.00000000000000
PRIMCOORD
 2 1
 99     0.00000000000000     0.00000000000000     0.00000000000000
 99     1.39874445138866     1.39874445138866     1.39874445138866
=======
 0.00000000000000 2.79748889910549 2.79748889910549
 2.79748889910549 0.00000000000000 2.79748889910549
 2.79748889910549 2.79748889910549 0.00000000000000
PRIMCOORD
 2 1
 99     0.00000000000000     0.00000000000000     0.00000000000000
 99     1.39874444955275     1.39874444955275     1.39874444955275
>>>>>>> 7cc294e (Central volumes for PBE Z=97-103, and PBEsol and LDA for Z=1-103)
