CRYSTAL
PRIMVEC
<<<<<<< HEAD
<<<<<<< HEAD
 -1.65996582757846 1.65996582757846 1.65996582757846
 1.65996582757846 -1.65996582757846 1.65996582757846
 1.65996582757846 1.65996582757846 -1.65996582757846
=======
 -1.65996565047021 1.65996565047021 1.65996565047021
 1.65996565047021 -1.65996565047021 1.65996565047021
 1.65996565047021 1.65996565047021 -1.65996565047021
>>>>>>> 7cc294e (Central volumes for PBE Z=97-103, and PBEsol and LDA for Z=1-103)
=======
 -1.65996582757846 1.65996582757846 1.65996582757846
 1.65996582757846 -1.65996582757846 1.65996582757846
 1.65996582757846 1.65996582757846 -1.65996582757846
>>>>>>> e84099c (Update new central volumes and add script for consistency checks)
PRIMCOORD
 1 1
 63     0.00000000000000     0.00000000000000     0.00000000000000
