CRYSTAL
PRIMVEC
<<<<<<< HEAD
<<<<<<< HEAD
 0.00000000000000 2.69146980932790 2.69146980932790
 2.69146980932790 0.00000000000000 2.69146980932790
 2.69146980932790 2.69146980932790 0.00000000000000
PRIMCOORD
 2 1
 63     0.00000000000000     0.00000000000000     0.00000000000000
 63     1.34573490466395     1.34573490466395     1.34573490466395
=======
 0.00000000000000 2.69146977624177 2.69146977624177
 2.69146977624177 0.00000000000000 2.69146977624177
 2.69146977624177 2.69146977624177 0.00000000000000
PRIMCOORD
 2 1
 63     0.00000000000000     0.00000000000000     0.00000000000000
 63     1.34573488812089     1.34573488812089     1.34573488812089
>>>>>>> 7cc294e (Central volumes for PBE Z=97-103, and PBEsol and LDA for Z=1-103)
=======
 0.00000000000000 2.69146980932790 2.69146980932790
 2.69146980932790 0.00000000000000 2.69146980932790
 2.69146980932790 2.69146980932790 0.00000000000000
PRIMCOORD
 2 1
 63     0.00000000000000     0.00000000000000     0.00000000000000
 63     1.34573490466395     1.34573490466395     1.34573490466395
>>>>>>> e84099c (Update new central volumes and add script for consistency checks)
