CRYSTAL
PRIMVEC
<<<<<<< HEAD
<<<<<<< HEAD
 2.52226913740030 0.00000000000000 0.00000000000000
 0.00000000000000 2.52226913740030 0.00000000000000
 0.00000000000000 0.00000000000000 2.52226913740030
=======
 2.52226911798863 0.00000000000000 0.00000000000000
 0.00000000000000 2.52226911798863 0.00000000000000
 0.00000000000000 0.00000000000000 2.52226911798863
>>>>>>> 7cc294e (Central volumes for PBE Z=97-103, and PBEsol and LDA for Z=1-103)
=======
 2.52226913740030 0.00000000000000 0.00000000000000
 0.00000000000000 2.52226913740030 0.00000000000000
 0.00000000000000 0.00000000000000 2.52226913740030
>>>>>>> e84099c (Update new central volumes and add script for consistency checks)
PRIMCOORD
 1 1
 63     0.00000000000000     0.00000000000000     0.00000000000000
