CRYSTAL
PRIMVEC
<<<<<<< HEAD
 -1.31841706840294 1.31841706840294 1.31841706840294
 1.31841706840294 -1.31841706840294 1.31841706840294
 1.31841706840294 1.31841706840294 -1.31841706840294
=======
 -1.31841706779301 1.31841706779301 1.31841706779301
 1.31841706779301 -1.31841706779301 1.31841706779301
 1.31841706779301 1.31841706779301 -1.31841706779301
>>>>>>> 7cc294e (Central volumes for PBE Z=97-103, and PBEsol and LDA for Z=1-103)
PRIMCOORD
 1 1
  9     0.00000000000000     0.00000000000000     0.00000000000000
