CRYSTAL
PRIMVEC
<<<<<<< HEAD
 0.00000000000000 2.38635216107589 2.38635216107589
 2.38635216107589 0.00000000000000 2.38635216107589
 2.38635216107589 2.38635216107589 0.00000000000000
PRIMCOORD
 2 1
  9     0.00000000000000     0.00000000000000     0.00000000000000
  9     1.19317608053794     1.19317608053794     1.19317608053794
=======
 0.00000000000000 2.38635215412703 2.38635215412703
 2.38635215412703 0.00000000000000 2.38635215412703
 2.38635215412703 2.38635215412703 0.00000000000000
PRIMCOORD
 2 1
  9     0.00000000000000     0.00000000000000     0.00000000000000
  9     1.19317607706352     1.19317607706352     1.19317607706352
>>>>>>> 7cc294e (Central volumes for PBE Z=97-103, and PBEsol and LDA for Z=1-103)
