CRYSTAL
PRIMVEC
<<<<<<< HEAD
 2.13507653134685 0.00000000000000 0.00000000000000
 0.00000000000000 2.13507653134685 0.00000000000000
 0.00000000000000 0.00000000000000 2.13507653134685
=======
 2.13507653013471 0.00000000000000 0.00000000000000
 0.00000000000000 2.13507653013471 0.00000000000000
 0.00000000000000 0.00000000000000 2.13507653013471
>>>>>>> 7cc294e (Central volumes for PBE Z=97-103, and PBEsol and LDA for Z=1-103)
PRIMCOORD
 1 1
  9     0.00000000000000     0.00000000000000     0.00000000000000
