CRYSTAL
PRIMVEC
<<<<<<< HEAD
 -1.36157270144815 1.36157270144815 1.36157270144815
 1.36157270144815 -1.36157270144815 1.36157270144815
 1.36157270144815 1.36157270144815 -1.36157270144815
=======
 -1.36157269657530 1.36157269657530 1.36157269657530
 1.36157269657530 -1.36157269657530 1.36157269657530
 1.36157269657530 1.36157269657530 -1.36157269657530
>>>>>>> 7cc294e (Central volumes for PBE Z=97-103, and PBEsol and LDA for Z=1-103)
PRIMCOORD
 1 1
 26     0.00000000000000     0.00000000000000     0.00000000000000
