CRYSTAL
PRIMVEC
<<<<<<< HEAD
<<<<<<< HEAD
 0.00000000000000 2.40177374608855 2.40177374608855
 2.40177374608855 0.00000000000000 2.40177374608855
 2.40177374608855 2.40177374608855 0.00000000000000
PRIMCOORD
 2 1
 26     0.00000000000000     0.00000000000000     0.00000000000000
 26     1.20088687304428     1.20088687304428     1.20088687304428
=======
 0.00000000000000 2.40177369660849 2.40177369660849
 2.40177369660849 0.00000000000000 2.40177369660849
 2.40177369660849 2.40177369660849 0.00000000000000
PRIMCOORD
 2 1
 26     0.00000000000000     0.00000000000000     0.00000000000000
 26     1.20088684830425     1.20088684830425     1.20088684830425
>>>>>>> 7cc294e (Central volumes for PBE Z=97-103, and PBEsol and LDA for Z=1-103)
=======
 0.00000000000000 2.40177374608855 2.40177374608855
 2.40177374608855 0.00000000000000 2.40177374608855
 2.40177374608855 2.40177374608855 0.00000000000000
PRIMCOORD
 2 1
 26     0.00000000000000     0.00000000000000     0.00000000000000
 26     1.20088687304428     1.20088687304428     1.20088687304428
>>>>>>> e84099c (Update new central volumes and add script for consistency checks)
