CRYSTAL
PRIMVEC
<<<<<<< HEAD
<<<<<<< HEAD
 0.00000000000000 1.70265030207462 1.70265030207462
 1.70265030207462 0.00000000000000 1.70265030207462
 1.70265030207462 1.70265030207462 0.00000000000000
=======
 0.00000000000000 1.70265029646416 1.70265029646416
 1.70265029646416 0.00000000000000 1.70265029646416
 1.70265029646416 1.70265029646416 0.00000000000000
>>>>>>> 7cc294e (Central volumes for PBE Z=97-103, and PBEsol and LDA for Z=1-103)
=======
 0.00000000000000 1.70265030207462 1.70265030207462
 1.70265030207462 0.00000000000000 1.70265030207462
 1.70265030207462 1.70265030207462 0.00000000000000
>>>>>>> e84099c (Update new central volumes and add script for consistency checks)
PRIMCOORD
 1 1
 26     0.00000000000000     0.00000000000000     0.00000000000000
