CRYSTAL
PRIMVEC
<<<<<<< HEAD
 2.23498313440585 0.00000000000000 0.00000000000000
 0.00000000000000 2.23498313440585 0.00000000000000
 0.00000000000000 0.00000000000000 2.23498313440585
=======
 2.23498312989713 0.00000000000000 0.00000000000000
 0.00000000000000 2.23498312989713 0.00000000000000
 0.00000000000000 0.00000000000000 2.23498312989713
>>>>>>> 7cc294e (Central volumes for PBE Z=97-103, and PBEsol and LDA for Z=1-103)
PRIMCOORD
 1 1
 26     0.00000000000000     0.00000000000000     0.00000000000000
