CRYSTAL
PRIMVEC
<<<<<<< HEAD
 -1.80026244950510 1.80026244950510 1.80026244950510
 1.80026244950510 -1.80026244950510 1.80026244950510
 1.80026244950510 1.80026244950510 -1.80026244950510
=======
 -1.80026168644396 1.80026168644396 1.80026168644396
 1.80026168644396 -1.80026168644396 1.80026168644396
 1.80026168644396 1.80026168644396 -1.80026168644396
>>>>>>> 7cc294e (Central volumes for PBE Z=97-103, and PBEsol and LDA for Z=1-103)
PRIMCOORD
 1 1
 100     0.00000000000000     0.00000000000000     0.00000000000000
