CRYSTAL
PRIMVEC
<<<<<<< HEAD
<<<<<<< HEAD
 0.00000000000000 2.98669484443531 2.98669484443531
 2.98669484443531 0.00000000000000 2.98669484443531
 2.98669484443531 2.98669484443531 0.00000000000000
PRIMCOORD
 2 1
 100     0.00000000000000     0.00000000000000     0.00000000000000
 100     1.49334742221766     1.49334742221766     1.49334742221766
=======
 0.00000000000000 2.98669452743440 2.98669452743440
 2.98669452743440 0.00000000000000 2.98669452743440
 2.98669452743440 2.98669452743440 0.00000000000000
PRIMCOORD
 2 1
 100     0.00000000000000     0.00000000000000     0.00000000000000
 100     1.49334726371720     1.49334726371720     1.49334726371720
>>>>>>> 7cc294e (Central volumes for PBE Z=97-103, and PBEsol and LDA for Z=1-103)
=======
 0.00000000000000 2.98669484443531 2.98669484443531
 2.98669484443531 0.00000000000000 2.98669484443531
 2.98669484443531 2.98669484443531 0.00000000000000
PRIMCOORD
 2 1
 100     0.00000000000000     0.00000000000000     0.00000000000000
 100     1.49334742221766     1.49334742221766     1.49334742221766
>>>>>>> e84099c (Update new central volumes and add script for consistency checks)
