CRYSTAL
PRIMVEC
<<<<<<< HEAD
<<<<<<< HEAD
 2.85809746330114 0.00000000000000 0.00000000000000
 0.00000000000000 2.85809746330114 0.00000000000000
 0.00000000000000 0.00000000000000 2.85809746330114
=======
 2.85809657172002 0.00000000000000 0.00000000000000
 0.00000000000000 2.85809657172002 0.00000000000000
 0.00000000000000 0.00000000000000 2.85809657172002
>>>>>>> 7cc294e (Central volumes for PBE Z=97-103, and PBEsol and LDA for Z=1-103)
=======
 2.85809746330114 0.00000000000000 0.00000000000000
 0.00000000000000 2.85809746330114 0.00000000000000
 0.00000000000000 0.00000000000000 2.85809746330114
>>>>>>> e84099c (Update new central volumes and add script for consistency checks)
PRIMCOORD
 1 1
 100     0.00000000000000     0.00000000000000     0.00000000000000
