CRYSTAL
PRIMVEC
<<<<<<< HEAD
 -2.97482074113726 2.97482074113726 2.97482074113726
 2.97482074113726 -2.97482074113726 2.97482074113726
 2.97482074113726 2.97482074113726 -2.97482074113726
=======
 -2.97482064818036 2.97482064818036 2.97482064818036
 2.97482064818036 -2.97482064818036 2.97482064818036
 2.97482064818036 2.97482064818036 -2.97482064818036
>>>>>>> 7cc294e (Central volumes for PBE Z=97-103, and PBEsol and LDA for Z=1-103)
PRIMCOORD
 1 1
 87     0.00000000000000     0.00000000000000     0.00000000000000
