CRYSTAL
PRIMVEC
<<<<<<< HEAD
<<<<<<< HEAD
 0.00000000000000 5.57999774806761 5.57999774806761
 5.57999774806761 0.00000000000000 5.57999774806761
 5.57999774806761 5.57999774806761 0.00000000000000
PRIMCOORD
 2 1
 87     0.00000000000000     0.00000000000000     0.00000000000000
 87     2.78999887403380     2.78999887403380     2.78999887403380
=======
 0.00000000000000 5.57999769600805 5.57999769600805
 5.57999769600805 0.00000000000000 5.57999769600805
 5.57999769600805 5.57999769600805 0.00000000000000
PRIMCOORD
 2 1
 87     0.00000000000000     0.00000000000000     0.00000000000000
 87     2.78999884800402     2.78999884800402     2.78999884800402
>>>>>>> 7cc294e (Central volumes for PBE Z=97-103, and PBEsol and LDA for Z=1-103)
=======
 0.00000000000000 5.57999774806761 5.57999774806761
 5.57999774806761 0.00000000000000 5.57999774806761
 5.57999774806761 5.57999774806761 0.00000000000000
PRIMCOORD
 2 1
 87     0.00000000000000     0.00000000000000     0.00000000000000
 87     2.78999887403380     2.78999887403380     2.78999887403380
>>>>>>> e84099c (Update new central volumes and add script for consistency checks)
