CRYSTAL
PRIMVEC
<<<<<<< HEAD
 4.93871227513223 0.00000000000000 0.00000000000000
 0.00000000000000 4.93871227513223 0.00000000000000
 0.00000000000000 0.00000000000000 4.93871227513223
=======
 4.93871224431862 0.00000000000000 0.00000000000000
 0.00000000000000 4.93871224431862 0.00000000000000
 0.00000000000000 0.00000000000000 4.93871224431862
>>>>>>> 7cc294e (Central volumes for PBE Z=97-103, and PBEsol and LDA for Z=1-103)
PRIMCOORD
 1 1
 87     0.00000000000000     0.00000000000000     0.00000000000000
