CRYSTAL
PRIMVEC
<<<<<<< HEAD
<<<<<<< HEAD
 -1.65022217000827 1.65022217000827 1.65022217000827
 1.65022217000827 -1.65022217000827 1.65022217000827
 1.65022217000827 1.65022217000827 -1.65022217000827
=======
 -1.65022215890596 1.65022215890596 1.65022215890596
 1.65022215890596 -1.65022215890596 1.65022215890596
 1.65022215890596 1.65022215890596 -1.65022215890596
>>>>>>> 7cc294e (Central volumes for PBE Z=97-103, and PBEsol and LDA for Z=1-103)
=======
 -1.65022217000827 1.65022217000827 1.65022217000827
 1.65022217000827 -1.65022217000827 1.65022217000827
 1.65022217000827 1.65022217000827 -1.65022217000827
>>>>>>> e84099c (Update new central volumes and add script for consistency checks)
PRIMCOORD
 1 1
 31     0.00000000000000     0.00000000000000     0.00000000000000
