CRYSTAL
PRIMVEC
<<<<<<< HEAD
<<<<<<< HEAD
 0.00000000000000 2.87864572340735 2.87864572340735
 2.87864572340735 0.00000000000000 2.87864572340735
 2.87864572340735 2.87864572340735 0.00000000000000
PRIMCOORD
 2 1
 31     0.00000000000000     0.00000000000000     0.00000000000000
 31     1.43932286170368     1.43932286170368     1.43932286170368
=======
 0.00000000000000 2.87864572286060 2.87864572286060
 2.87864572286060 0.00000000000000 2.87864572286060
 2.87864572286060 2.87864572286060 0.00000000000000
PRIMCOORD
 2 1
 31     0.00000000000000     0.00000000000000     0.00000000000000
 31     1.43932286143030     1.43932286143030     1.43932286143030
>>>>>>> 7cc294e (Central volumes for PBE Z=97-103, and PBEsol and LDA for Z=1-103)
=======
 0.00000000000000 2.87864572340735 2.87864572340735
 2.87864572340735 0.00000000000000 2.87864572340735
 2.87864572340735 2.87864572340735 0.00000000000000
PRIMCOORD
 2 1
 31     0.00000000000000     0.00000000000000     0.00000000000000
 31     1.43932286170368     1.43932286170368     1.43932286170368
>>>>>>> e84099c (Update new central volumes and add script for consistency checks)
