CRYSTAL
PRIMVEC
<<<<<<< HEAD
<<<<<<< HEAD
 2.65974054899190 0.00000000000000 0.00000000000000
 0.00000000000000 2.65974054899190 0.00000000000000
 0.00000000000000 0.00000000000000 2.65974054899190
=======
 2.65974052639986 0.00000000000000 0.00000000000000
 0.00000000000000 2.65974052639986 0.00000000000000
 0.00000000000000 0.00000000000000 2.65974052639986
>>>>>>> 7cc294e (Central volumes for PBE Z=97-103, and PBEsol and LDA for Z=1-103)
=======
 2.65974054899190 0.00000000000000 0.00000000000000
 0.00000000000000 2.65974054899190 0.00000000000000
 0.00000000000000 0.00000000000000 2.65974054899190
>>>>>>> e84099c (Update new central volumes and add script for consistency checks)
PRIMCOORD
 1 1
 31     0.00000000000000     0.00000000000000     0.00000000000000
