CRYSTAL
PRIMVEC
<<<<<<< HEAD
 -1.80201391166359 1.80201391166359 1.80201391166359
 1.80201391166359 -1.80201391166359 1.80201391166359
 1.80201391166359 1.80201391166359 -1.80201391166359
=======
 -1.80201315790211 1.80201315790211 1.80201315790211
 1.80201315790211 -1.80201315790211 1.80201315790211
 1.80201315790211 1.80201315790211 -1.80201315790211
>>>>>>> 7cc294e (Central volumes for PBE Z=97-103, and PBEsol and LDA for Z=1-103)
PRIMCOORD
 1 1
 64     0.00000000000000     0.00000000000000     0.00000000000000
