CRYSTAL
PRIMVEC
<<<<<<< HEAD
<<<<<<< HEAD
 0.00000000000000 2.69595061717462 2.69595061717462
 2.69595061717462 0.00000000000000 2.69595061717462
 2.69595061717462 2.69595061717462 0.00000000000000
PRIMCOORD
 2 1
 64     0.00000000000000     0.00000000000000     0.00000000000000
 64     1.34797530858731     1.34797530858731     1.34797530858731
=======
 0.00000000000000 2.69595053681336 2.69595053681336
 2.69595053681336 0.00000000000000 2.69595053681336
 2.69595053681336 2.69595053681336 0.00000000000000
PRIMCOORD
 2 1
 64     0.00000000000000     0.00000000000000     0.00000000000000
 64     1.34797526840668     1.34797526840668     1.34797526840668
>>>>>>> 7cc294e (Central volumes for PBE Z=97-103, and PBEsol and LDA for Z=1-103)
=======
 0.00000000000000 2.69595061717462 2.69595061717462
 2.69595061717462 0.00000000000000 2.69595061717462
 2.69595061717462 2.69595061717462 0.00000000000000
PRIMCOORD
 2 1
 64     0.00000000000000     0.00000000000000     0.00000000000000
 64     1.34797530858731     1.34797530858731     1.34797530858731
>>>>>>> e84099c (Update new central volumes and add script for consistency checks)
