CRYSTAL
PRIMVEC
<<<<<<< HEAD
 0.00000000000000 2.25937548605919 2.25937548605919
 2.25937548605919 0.00000000000000 2.25937548605919
 2.25937548605919 2.25937548605919 0.00000000000000
=======
 0.00000000000000 2.25937502412950 2.25937502412950
 2.25937502412950 0.00000000000000 2.25937502412950
 2.25937502412950 2.25937502412950 0.00000000000000
>>>>>>> 7cc294e (Central volumes for PBE Z=97-103, and PBEsol and LDA for Z=1-103)
PRIMCOORD
 1 1
 64     0.00000000000000     0.00000000000000     0.00000000000000
