CRYSTAL
PRIMVEC
<<<<<<< HEAD
 2.56152473682059 0.00000000000000 0.00000000000000
 0.00000000000000 2.56152473682059 0.00000000000000
 0.00000000000000 0.00000000000000 2.56152473682059
=======
 2.56152466151472 0.00000000000000 0.00000000000000
 0.00000000000000 2.56152466151472 0.00000000000000
 0.00000000000000 0.00000000000000 2.56152466151472
>>>>>>> 7cc294e (Central volumes for PBE Z=97-103, and PBEsol and LDA for Z=1-103)
PRIMCOORD
 1 1
 64     0.00000000000000     0.00000000000000     0.00000000000000
