CRYSTAL
PRIMVEC
<<<<<<< HEAD
 -1.65917575211531 1.65917575211531 1.65917575211531
 1.65917575211531 -1.65917575211531 1.65917575211531
 1.65917575211531 1.65917575211531 -1.65917575211531
=======
 -1.65917570299804 1.65917570299804 1.65917570299804
 1.65917570299804 -1.65917570299804 1.65917570299804
 1.65917570299804 1.65917570299804 -1.65917570299804
>>>>>>> 7cc294e (Central volumes for PBE Z=97-103, and PBEsol and LDA for Z=1-103)
PRIMCOORD
 1 1
 32     0.00000000000000     0.00000000000000     0.00000000000000
