CRYSTAL
PRIMVEC
<<<<<<< HEAD
 0.00000000000000 2.83815825465114 2.83815825465114
 2.83815825465114 0.00000000000000 2.83815825465114
 2.83815825465114 2.83815825465114 0.00000000000000
PRIMCOORD
 2 1
 32     0.00000000000000     0.00000000000000     0.00000000000000
 32     1.41907912732557     1.41907912732557     1.41907912732557
=======
 0.00000000000000 2.83815822053353 2.83815822053353
 2.83815822053353 0.00000000000000 2.83815822053353
 2.83815822053353 2.83815822053353 0.00000000000000
PRIMCOORD
 2 1
 32     0.00000000000000     0.00000000000000     0.00000000000000
 32     1.41907911026677     1.41907911026677     1.41907911026677
>>>>>>> 7cc294e (Central volumes for PBE Z=97-103, and PBEsol and LDA for Z=1-103)
