CRYSTAL
PRIMVEC
<<<<<<< HEAD
 2.66778241972540 0.00000000000000 0.00000000000000
 0.00000000000000 2.66778241972540 0.00000000000000
 0.00000000000000 0.00000000000000 2.66778241972540
=======
 2.66778237326706 0.00000000000000 0.00000000000000
 0.00000000000000 2.66778237326706 0.00000000000000
 0.00000000000000 0.00000000000000 2.66778237326706
>>>>>>> 7cc294e (Central volumes for PBE Z=97-103, and PBEsol and LDA for Z=1-103)
PRIMCOORD
 1 1
 32     0.00000000000000     0.00000000000000     0.00000000000000
