CRYSTAL
PRIMVEC
<<<<<<< HEAD
<<<<<<< HEAD
 -0.89955375723483 0.89955375723483 0.89955375723483
 0.89955375723483 -0.89955375723483 0.89955375723483
 0.89955375723483 0.89955375723483 -0.89955375723483
=======
 -0.89955375687207 0.89955375687207 0.89955375687207
 0.89955375687207 -0.89955375687207 0.89955375687207
 0.89955375687207 0.89955375687207 -0.89955375687207
>>>>>>> 7cc294e (Central volumes for PBE Z=97-103, and PBEsol and LDA for Z=1-103)
=======
 -0.89955375723483 0.89955375723483 0.89955375723483
 0.89955375723483 -0.89955375723483 0.89955375723483
 0.89955375723483 0.89955375723483 -0.89955375723483
>>>>>>> e84099c (Update new central volumes and add script for consistency checks)
PRIMCOORD
 1 1
  1     0.00000000000000     0.00000000000000     0.00000000000000
