CRYSTAL
PRIMVEC
<<<<<<< HEAD
<<<<<<< HEAD
 0.00000000000000 1.49642198559746 1.49642198559746
 1.49642198559746 0.00000000000000 1.49642198559746
 1.49642198559746 1.49642198559746 0.00000000000000
PRIMCOORD
 2 1
  1     0.00000000000000     0.00000000000000     0.00000000000000
  1     0.74821099279873     0.74821099279873     0.74821099279873
=======
 0.00000000000000 1.49642198424048 1.49642198424048
 1.49642198424048 0.00000000000000 1.49642198424048
 1.49642198424048 1.49642198424048 0.00000000000000
PRIMCOORD
 2 1
  1     0.00000000000000     0.00000000000000     0.00000000000000
  1     0.74821099212024     0.74821099212024     0.74821099212024
>>>>>>> 7cc294e (Central volumes for PBE Z=97-103, and PBEsol and LDA for Z=1-103)
=======
 0.00000000000000 1.49642198559746 1.49642198559746
 1.49642198559746 0.00000000000000 1.49642198559746
 1.49642198559746 1.49642198559746 0.00000000000000
PRIMCOORD
 2 1
  1     0.00000000000000     0.00000000000000     0.00000000000000
  1     0.74821099279873     0.74821099279873     0.74821099279873
>>>>>>> e84099c (Update new central volumes and add script for consistency checks)
