CRYSTAL
PRIMVEC
<<<<<<< HEAD
 0.00000000000000 1.13312443251987 1.13312443251987
 1.13312443251987 0.00000000000000 1.13312443251987
 1.13312443251987 1.13312443251987 0.00000000000000
=======
 0.00000000000000 1.13312443233761 1.13312443233761
 1.13312443233761 0.00000000000000 1.13312443233761
 1.13312443233761 1.13312443233761 0.00000000000000
>>>>>>> 7cc294e (Central volumes for PBE Z=97-103, and PBEsol and LDA for Z=1-103)
PRIMCOORD
 1 1
  1     0.00000000000000     0.00000000000000     0.00000000000000
