CRYSTAL
PRIMVEC
<<<<<<< HEAD
<<<<<<< HEAD
 1.44625971342989 0.00000000000000 0.00000000000000
 0.00000000000000 1.44625971342989 0.00000000000000
 0.00000000000000 0.00000000000000 1.44625971342989
=======
 1.44625970270930 0.00000000000000 0.00000000000000
 0.00000000000000 1.44625970270930 0.00000000000000
 0.00000000000000 0.00000000000000 1.44625970270930
>>>>>>> 7cc294e (Central volumes for PBE Z=97-103, and PBEsol and LDA for Z=1-103)
=======
 1.44625971342989 0.00000000000000 0.00000000000000
 0.00000000000000 1.44625971342989 0.00000000000000
 0.00000000000000 0.00000000000000 1.44625971342989
>>>>>>> e84099c (Update new central volumes and add script for consistency checks)
PRIMCOORD
 1 1
  1     0.00000000000000     0.00000000000000     0.00000000000000
