CRYSTAL
PRIMVEC
<<<<<<< HEAD
 -1.72011478268571 1.72011478268571 1.72011478268571
 1.72011478268571 -1.72011478268571 1.72011478268571
 1.72011478268571 1.72011478268571 -1.72011478268571
=======
 -1.72011467189375 1.72011467189375 1.72011467189375
 1.72011467189375 -1.72011467189375 1.72011467189375
 1.72011467189375 1.72011467189375 -1.72011467189375
>>>>>>> 7cc294e (Central volumes for PBE Z=97-103, and PBEsol and LDA for Z=1-103)
PRIMCOORD
 1 1
  2     0.00000000000000     0.00000000000000     0.00000000000000
