CRYSTAL
PRIMVEC
<<<<<<< HEAD
<<<<<<< HEAD
 0.00000000000000 3.30824337627723 3.30824337627723
 3.30824337627723 0.00000000000000 3.30824337627723
 3.30824337627723 3.30824337627723 0.00000000000000
PRIMCOORD
 2 1
  2     0.00000000000000     0.00000000000000     0.00000000000000
  2     1.65412168813862     1.65412168813862     1.65412168813862
=======
 0.00000000000000 3.30824319260441 3.30824319260441
 3.30824319260441 0.00000000000000 3.30824319260441
 3.30824319260441 3.30824319260441 0.00000000000000
PRIMCOORD
 2 1
  2     0.00000000000000     0.00000000000000     0.00000000000000
  2     1.65412159630220     1.65412159630220     1.65412159630220
>>>>>>> 7cc294e (Central volumes for PBE Z=97-103, and PBEsol and LDA for Z=1-103)
=======
 0.00000000000000 3.30824337627723 3.30824337627723
 3.30824337627723 0.00000000000000 3.30824337627723
 3.30824337627723 3.30824337627723 0.00000000000000
PRIMCOORD
 2 1
  2     0.00000000000000     0.00000000000000     0.00000000000000
  2     1.65412168813862     1.65412168813862     1.65412168813862
>>>>>>> e84099c (Update new central volumes and add script for consistency checks)
