CRYSTAL
PRIMVEC
<<<<<<< HEAD
 0.00000000000000 2.15532268561345 2.15532268561345
 2.15532268561345 0.00000000000000 2.15532268561345
 2.15532268561345 2.15532268561345 0.00000000000000
=======
 0.00000000000000 2.15532235177385 2.15532235177385
 2.15532235177385 0.00000000000000 2.15532235177385
 2.15532235177385 2.15532235177385 0.00000000000000
>>>>>>> 7cc294e (Central volumes for PBE Z=97-103, and PBEsol and LDA for Z=1-103)
PRIMCOORD
 1 1
  2     0.00000000000000     0.00000000000000     0.00000000000000
