CRYSTAL
PRIMVEC
<<<<<<< HEAD
<<<<<<< HEAD
 2.89873464157682 0.00000000000000 0.00000000000000
 0.00000000000000 2.89873464157682 0.00000000000000
 0.00000000000000 0.00000000000000 2.89873464157682
=======
 2.89873456626757 0.00000000000000 0.00000000000000
 0.00000000000000 2.89873456626757 0.00000000000000
 0.00000000000000 0.00000000000000 2.89873456626757
>>>>>>> 7cc294e (Central volumes for PBE Z=97-103, and PBEsol and LDA for Z=1-103)
=======
 2.89873464157682 0.00000000000000 0.00000000000000
 0.00000000000000 2.89873464157682 0.00000000000000
 0.00000000000000 0.00000000000000 2.89873464157682
>>>>>>> e84099c (Update new central volumes and add script for consistency checks)
PRIMCOORD
 1 1
  2     0.00000000000000     0.00000000000000     0.00000000000000
