CRYSTAL
PRIMVEC
<<<<<<< HEAD
 0.00000000000000 3.18592877651334 3.18592877651334
 3.18592877651334 0.00000000000000 3.18592877651334
 3.18592877651334 3.18592877651334 0.00000000000000
PRIMCOORD
 2 1
 72     0.00000000000000     0.00000000000000     0.00000000000000
 72     1.59296438825667     1.59296438825667     1.59296438825667
=======
 0.00000000000000 3.18592877228583 3.18592877228583
 3.18592877228583 0.00000000000000 3.18592877228583
 3.18592877228583 3.18592877228583 0.00000000000000
PRIMCOORD
 2 1
 72     0.00000000000000     0.00000000000000     0.00000000000000
 72     1.59296438614291     1.59296438614291     1.59296438614291
>>>>>>> 7cc294e (Central volumes for PBE Z=97-103, and PBEsol and LDA for Z=1-103)
