CRYSTAL
PRIMVEC
<<<<<<< HEAD
 2.86443766228725 0.00000000000000 0.00000000000000
 0.00000000000000 2.86443766228725 0.00000000000000
 0.00000000000000 0.00000000000000 2.86443766228725
=======
 2.86443764539807 0.00000000000000 0.00000000000000
 0.00000000000000 2.86443764539807 0.00000000000000
 0.00000000000000 0.00000000000000 2.86443764539807
>>>>>>> 7cc294e (Central volumes for PBE Z=97-103, and PBEsol and LDA for Z=1-103)
PRIMCOORD
 1 1
 72     0.00000000000000     0.00000000000000     0.00000000000000
