CRYSTAL
PRIMVEC
<<<<<<< HEAD
 -1.81580967746876 1.81580967746876 1.81580967746876
 1.81580967746876 -1.81580967746876 1.81580967746876
 1.81580967746876 1.81580967746876 -1.81580967746876
=======
 -1.81580963666624 1.81580963666624 1.81580963666624
 1.81580963666624 -1.81580963666624 1.81580963666624
 1.81580963666624 1.81580963666624 -1.81580963666624
>>>>>>> 7cc294e (Central volumes for PBE Z=97-103, and PBEsol and LDA for Z=1-103)
PRIMCOORD
 1 1
 80     0.00000000000000     0.00000000000000     0.00000000000000
