CRYSTAL
PRIMVEC
<<<<<<< HEAD
 0.00000000000000 3.31064886558619 3.31064886558619
 3.31064886558619 0.00000000000000 3.31064886558619
 3.31064886558619 3.31064886558619 0.00000000000000
PRIMCOORD
 2 1
 80     0.00000000000000     0.00000000000000     0.00000000000000
 80     1.65532443279310     1.65532443279310     1.65532443279310
=======
 0.00000000000000 3.31064861667797 3.31064861667797
 3.31064861667797 0.00000000000000 3.31064861667797
 3.31064861667797 3.31064861667797 0.00000000000000
PRIMCOORD
 2 1
 80     0.00000000000000     0.00000000000000     0.00000000000000
 80     1.65532430833899     1.65532430833899     1.65532430833899
>>>>>>> 7cc294e (Central volumes for PBE Z=97-103, and PBEsol and LDA for Z=1-103)
