CRYSTAL
PRIMVEC
<<<<<<< HEAD
<<<<<<< HEAD
 2.94796097489249 0.00000000000000 0.00000000000000
 0.00000000000000 2.94796097489249 0.00000000000000
 0.00000000000000 0.00000000000000 2.94796097489249
=======
 2.94796095736038 0.00000000000000 0.00000000000000
 0.00000000000000 2.94796095736038 0.00000000000000
 0.00000000000000 0.00000000000000 2.94796095736038
>>>>>>> 7cc294e (Central volumes for PBE Z=97-103, and PBEsol and LDA for Z=1-103)
=======
 2.94796097489249 0.00000000000000 0.00000000000000
 0.00000000000000 2.94796097489249 0.00000000000000
 0.00000000000000 0.00000000000000 2.94796097489249
>>>>>>> e84099c (Update new central volumes and add script for consistency checks)
PRIMCOORD
 1 1
 80     0.00000000000000     0.00000000000000     0.00000000000000
