CRYSTAL
PRIMVEC
<<<<<<< HEAD
<<<<<<< HEAD
 -1.94925477752060 1.94925477752060 1.94925477752060
 1.94925477752060 -1.94925477752060 1.94925477752060
 1.94925477752060 1.94925477752060 -1.94925477752060
=======
 -1.94925477641556 1.94925477641556 1.94925477641556
 1.94925477641556 -1.94925477641556 1.94925477641556
 1.94925477641556 1.94925477641556 -1.94925477641556
>>>>>>> 7cc294e (Central volumes for PBE Z=97-103, and PBEsol and LDA for Z=1-103)
=======
 -1.94925477752060 1.94925477752060 1.94925477752060
 1.94925477752060 -1.94925477752060 1.94925477752060
 1.94925477752060 1.94925477752060 -1.94925477752060
>>>>>>> e84099c (Update new central volumes and add script for consistency checks)
PRIMCOORD
 1 1
 67     0.00000000000000     0.00000000000000     0.00000000000000
