CRYSTAL
PRIMVEC
<<<<<<< HEAD
<<<<<<< HEAD
 0.00000000000000 2.81769948413989 2.81769948413989
 2.81769948413989 0.00000000000000 2.81769948413989
 2.81769948413989 2.81769948413989 0.00000000000000
PRIMCOORD
 2 1
 67     0.00000000000000     0.00000000000000     0.00000000000000
 67     1.40884974206994     1.40884974206994     1.40884974206994
=======
 0.00000000000000 2.81769947960102 2.81769947960102
 2.81769947960102 0.00000000000000 2.81769947960102
 2.81769947960102 2.81769947960102 0.00000000000000
PRIMCOORD
 2 1
 67     0.00000000000000     0.00000000000000     0.00000000000000
 67     1.40884973980051     1.40884973980051     1.40884973980051
>>>>>>> 7cc294e (Central volumes for PBE Z=97-103, and PBEsol and LDA for Z=1-103)
=======
 0.00000000000000 2.81769948413989 2.81769948413989
 2.81769948413989 0.00000000000000 2.81769948413989
 2.81769948413989 2.81769948413989 0.00000000000000
PRIMCOORD
 2 1
 67     0.00000000000000     0.00000000000000     0.00000000000000
 67     1.40884974206994     1.40884974206994     1.40884974206994
>>>>>>> e84099c (Update new central volumes and add script for consistency checks)
