CRYSTAL
PRIMVEC
<<<<<<< HEAD
 3.06628106904730 0.00000000000000 0.00000000000000
 0.00000000000000 3.06628106904730 0.00000000000000
 0.00000000000000 0.00000000000000 3.06628106904730
=======
 3.06628106331940 0.00000000000000 0.00000000000000
 0.00000000000000 3.06628106331940 0.00000000000000
 0.00000000000000 0.00000000000000 3.06628106331940
>>>>>>> 7cc294e (Central volumes for PBE Z=97-103, and PBEsol and LDA for Z=1-103)
PRIMCOORD
 1 1
 67     0.00000000000000     0.00000000000000     0.00000000000000
