CRYSTAL
PRIMVEC
<<<<<<< HEAD
 -2.01478647046641 2.01478647046641 2.01478647046641
 2.01478647046641 -2.01478647046641 2.01478647046641
 2.01478647046641 2.01478647046641 -2.01478647046641
=======
 -2.01478647001199 2.01478647001199 2.01478647001199
 2.01478647001199 -2.01478647001199 2.01478647001199
 2.01478647001199 2.01478647001199 -2.01478647001199
>>>>>>> 7cc294e (Central volumes for PBE Z=97-103, and PBEsol and LDA for Z=1-103)
PRIMCOORD
 1 1
 53     0.00000000000000     0.00000000000000     0.00000000000000
