CRYSTAL
PRIMVEC
<<<<<<< HEAD
 0.00000000000000 3.83089338218860 3.83089338218860
 3.83089338218860 0.00000000000000 3.83089338218860
 3.83089338218860 3.83089338218860 0.00000000000000
PRIMCOORD
 2 1
 53     0.00000000000000     0.00000000000000     0.00000000000000
 53     1.91544669109430     1.91544669109430     1.91544669109430
=======
 0.00000000000000 3.83089337901269 3.83089337901269
 3.83089337901269 0.00000000000000 3.83089337901269
 3.83089337901269 3.83089337901269 0.00000000000000
PRIMCOORD
 2 1
 53     0.00000000000000     0.00000000000000     0.00000000000000
 53     1.91544668950635     1.91544668950635     1.91544668950635
>>>>>>> 7cc294e (Central volumes for PBE Z=97-103, and PBEsol and LDA for Z=1-103)
