CRYSTAL
PRIMVEC
<<<<<<< HEAD
<<<<<<< HEAD
 3.37820133659838 0.00000000000000 0.00000000000000
 0.00000000000000 3.37820133659838 0.00000000000000
 0.00000000000000 0.00000000000000 3.37820133659838
=======
 3.37820133529835 0.00000000000000 0.00000000000000
 0.00000000000000 3.37820133529835 0.00000000000000
 0.00000000000000 0.00000000000000 3.37820133529835
>>>>>>> 7cc294e (Central volumes for PBE Z=97-103, and PBEsol and LDA for Z=1-103)
=======
 3.37820133659838 0.00000000000000 0.00000000000000
 0.00000000000000 3.37820133659838 0.00000000000000
 0.00000000000000 0.00000000000000 3.37820133659838
>>>>>>> e84099c (Update new central volumes and add script for consistency checks)
PRIMCOORD
 1 1
 53     0.00000000000000     0.00000000000000     0.00000000000000
