CRYSTAL
PRIMVEC
<<<<<<< HEAD
 -1.86188185448672 1.86188185448672 1.86188185448672
 1.86188185448672 -1.86188185448672 1.86188185448672
 1.86188185448672 1.86188185448672 -1.86188185448672
=======
 -1.86188180851695 1.86188180851695 1.86188180851695
 1.86188180851695 -1.86188180851695 1.86188180851695
 1.86188180851695 1.86188180851695 -1.86188180851695
>>>>>>> 7cc294e (Central volumes for PBE Z=97-103, and PBEsol and LDA for Z=1-103)
PRIMCOORD
 1 1
 49     0.00000000000000     0.00000000000000     0.00000000000000
