CRYSTAL
PRIMVEC
<<<<<<< HEAD
 0.00000000000000 3.28204476060066 3.28204476060066
 3.28204476060066 0.00000000000000 3.28204476060066
 3.28204476060066 3.28204476060066 0.00000000000000
PRIMCOORD
 2 1
 49     0.00000000000000     0.00000000000000     0.00000000000000
 49     1.64102238030033     1.64102238030033     1.64102238030033
=======
 0.00000000000000 3.28204475190860 3.28204475190860
 3.28204475190860 0.00000000000000 3.28204475190860
 3.28204475190860 3.28204475190860 0.00000000000000
PRIMCOORD
 2 1
 49     0.00000000000000     0.00000000000000     0.00000000000000
 49     1.64102237595430     1.64102237595430     1.64102237595430
>>>>>>> 7cc294e (Central volumes for PBE Z=97-103, and PBEsol and LDA for Z=1-103)
