CRYSTAL
PRIMVEC
<<<<<<< HEAD
 0.00000000000000 2.33902477456726 2.33902477456726
 2.33902477456726 0.00000000000000 2.33902477456726
 2.33902477456726 2.33902477456726 0.00000000000000
=======
 0.00000000000000 2.33902471027843 2.33902471027843
 2.33902471027843 0.00000000000000 2.33902471027843
 2.33902471027843 2.33902471027843 0.00000000000000
>>>>>>> 7cc294e (Central volumes for PBE Z=97-103, and PBEsol and LDA for Z=1-103)
PRIMCOORD
 1 1
 49     0.00000000000000     0.00000000000000     0.00000000000000
