CRYSTAL
PRIMVEC
<<<<<<< HEAD
<<<<<<< HEAD
 0.00000000000000 2.75367602793019 2.75367602793019
 2.75367602793019 0.00000000000000 2.75367602793019
 2.75367602793019 2.75367602793019 0.00000000000000
PRIMCOORD
 2 1
 77     0.00000000000000     0.00000000000000     0.00000000000000
 77     1.37683801396510     1.37683801396510     1.37683801396510
=======
 0.00000000000000 2.75367601585690 2.75367601585690
 2.75367601585690 0.00000000000000 2.75367601585690
 2.75367601585690 2.75367601585690 0.00000000000000
PRIMCOORD
 2 1
 77     0.00000000000000     0.00000000000000     0.00000000000000
 77     1.37683800792845     1.37683800792845     1.37683800792845
>>>>>>> 7cc294e (Central volumes for PBE Z=97-103, and PBEsol and LDA for Z=1-103)
=======
 0.00000000000000 2.75367602793019 2.75367602793019
 2.75367602793019 0.00000000000000 2.75367602793019
 2.75367602793019 2.75367602793019 0.00000000000000
PRIMCOORD
 2 1
 77     0.00000000000000     0.00000000000000     0.00000000000000
 77     1.37683801396510     1.37683801396510     1.37683801396510
>>>>>>> e84099c (Update new central volumes and add script for consistency checks)
