CRYSTAL
PRIMVEC
<<<<<<< HEAD
 2.54124688869037 0.00000000000000 0.00000000000000
 0.00000000000000 2.54124688869037 0.00000000000000
 0.00000000000000 0.00000000000000 2.54124688869037
=======
 2.54124687723033 0.00000000000000 0.00000000000000
 0.00000000000000 2.54124687723033 0.00000000000000
 0.00000000000000 0.00000000000000 2.54124687723033
>>>>>>> 7cc294e (Central volumes for PBE Z=97-103, and PBEsol and LDA for Z=1-103)
PRIMCOORD
 1 1
 77     0.00000000000000     0.00000000000000     0.00000000000000
