CRYSTAL
PRIMVEC
<<<<<<< HEAD
<<<<<<< HEAD
 -2.60769961416132 2.60769961416132 2.60769961416132
 2.60769961416132 -2.60769961416132 2.60769961416132
 2.60769961416132 2.60769961416132 -2.60769961416132
=======
 -2.60769961410493 2.60769961410493 2.60769961410493
 2.60769961410493 -2.60769961410493 2.60769961410493
 2.60769961410493 2.60769961410493 -2.60769961410493
>>>>>>> 7cc294e (Central volumes for PBE Z=97-103, and PBEsol and LDA for Z=1-103)
=======
 -2.60769961416132 2.60769961416132 2.60769961416132
 2.60769961416132 -2.60769961416132 2.60769961416132
 2.60769961416132 2.60769961416132 -2.60769961416132
>>>>>>> e84099c (Update new central volumes and add script for consistency checks)
PRIMCOORD
 1 1
 19     0.00000000000000     0.00000000000000     0.00000000000000
