CRYSTAL
PRIMVEC
<<<<<<< HEAD
 0.00000000000000 4.71858320956764 4.71858320956764
 4.71858320956764 0.00000000000000 4.71858320956764
 4.71858320956764 4.71858320956764 0.00000000000000
PRIMCOORD
 2 1
 19     0.00000000000000     0.00000000000000     0.00000000000000
 19     2.35929160478382     2.35929160478382     2.35929160478382
=======
 0.00000000000000 4.71858319972100 4.71858319972100
 4.71858319972100 0.00000000000000 4.71858319972100
 4.71858319972100 4.71858319972100 0.00000000000000
PRIMCOORD
 2 1
 19     0.00000000000000     0.00000000000000     0.00000000000000
 19     2.35929159986050     2.35929159986050     2.35929159986050
>>>>>>> 7cc294e (Central volumes for PBE Z=97-103, and PBEsol and LDA for Z=1-103)
