CRYSTAL
PRIMVEC
<<<<<<< HEAD
 0.00000000000000 3.28881998214836 3.28881998214836
 3.28881998214836 0.00000000000000 3.28881998214836
 3.28881998214836 3.28881998214836 0.00000000000000
=======
 0.00000000000000 3.28881997778184 3.28881997778184
 3.28881997778184 0.00000000000000 3.28881997778184
 3.28881997778184 3.28881997778184 0.00000000000000
>>>>>>> 7cc294e (Central volumes for PBE Z=97-103, and PBEsol and LDA for Z=1-103)
PRIMCOORD
 1 1
 19     0.00000000000000     0.00000000000000     0.00000000000000
