CRYSTAL
PRIMVEC
<<<<<<< HEAD
 4.23595453332026 0.00000000000000 0.00000000000000
 0.00000000000000 4.23595453332026 0.00000000000000
 0.00000000000000 0.00000000000000 4.23595453332026
=======
 4.23595452729394 0.00000000000000 0.00000000000000
 0.00000000000000 4.23595452729394 0.00000000000000
 0.00000000000000 0.00000000000000 4.23595452729394
>>>>>>> 7cc294e (Central volumes for PBE Z=97-103, and PBEsol and LDA for Z=1-103)
PRIMCOORD
 1 1
 19     0.00000000000000     0.00000000000000     0.00000000000000
