CRYSTAL
PRIMVEC
<<<<<<< HEAD
<<<<<<< HEAD
 0.00000000000000 4.85760005913031 4.85760005913031
 4.85760005913031 0.00000000000000 4.85760005913031
 4.85760005913031 4.85760005913031 0.00000000000000
PRIMCOORD
 2 1
 36     0.00000000000000     0.00000000000000     0.00000000000000
 36     2.42880002956516     2.42880002956516     2.42880002956516
=======
 0.00000000000000 4.85759987919645 4.85759987919645
 4.85759987919645 0.00000000000000 4.85759987919645
 4.85759987919645 4.85759987919645 0.00000000000000
PRIMCOORD
 2 1
 36     0.00000000000000     0.00000000000000     0.00000000000000
 36     2.42879993959823     2.42879993959823     2.42879993959823
>>>>>>> 7cc294e (Central volumes for PBE Z=97-103, and PBEsol and LDA for Z=1-103)
=======
 0.00000000000000 4.85760005913031 4.85760005913031
 4.85760005913031 0.00000000000000 4.85760005913031
 4.85760005913031 4.85760005913031 0.00000000000000
PRIMCOORD
 2 1
 36     0.00000000000000     0.00000000000000     0.00000000000000
 36     2.42880002956516     2.42880002956516     2.42880002956516
>>>>>>> e84099c (Update new central volumes and add script for consistency checks)
