CRYSTAL
PRIMVEC
<<<<<<< HEAD
 0.00000000000000 3.07215940646486 3.07215940646486
 3.07215940646486 0.00000000000000 3.07215940646486
 3.07215940646486 3.07215940646486 0.00000000000000
=======
 0.00000000000000 3.07215940641830 3.07215940641830
 3.07215940641830 0.00000000000000 3.07215940641830
 3.07215940641830 3.07215940641830 0.00000000000000
>>>>>>> 7cc294e (Central volumes for PBE Z=97-103, and PBEsol and LDA for Z=1-103)
PRIMCOORD
 1 1
 36     0.00000000000000     0.00000000000000     0.00000000000000
