CRYSTAL
PRIMVEC
<<<<<<< HEAD
 4.24747983387021 0.00000000000000 0.00000000000000
 0.00000000000000 4.24747983387021 0.00000000000000
 0.00000000000000 0.00000000000000 4.24747983387021
=======
 4.24747980291407 0.00000000000000 0.00000000000000
 0.00000000000000 4.24747980291407 0.00000000000000
 0.00000000000000 0.00000000000000 4.24747980291407
>>>>>>> 7cc294e (Central volumes for PBE Z=97-103, and PBEsol and LDA for Z=1-103)
PRIMCOORD
 1 1
 36     0.00000000000000     0.00000000000000     0.00000000000000
