CRYSTAL
PRIMVEC
<<<<<<< HEAD
 -2.05741478857722 2.05741478857722 2.05741478857722
 2.05741478857722 -2.05741478857722 2.05741478857722
 2.05741478857722 2.05741478857722 -2.05741478857722
=======
 -2.05741476941491 2.05741476941491 2.05741476941491
 2.05741476941491 -2.05741476941491 2.05741476941491
 2.05741476941491 2.05741476941491 -2.05741476941491
>>>>>>> 7cc294e (Central volumes for PBE Z=97-103, and PBEsol and LDA for Z=1-103)
PRIMCOORD
 1 1
 57     0.00000000000000     0.00000000000000     0.00000000000000
