CRYSTAL
PRIMVEC
<<<<<<< HEAD
<<<<<<< HEAD
 0.00000000000000 3.28380894469164 3.28380894469164
 3.28380894469164 0.00000000000000 3.28380894469164
 3.28380894469164 3.28380894469164 0.00000000000000
PRIMCOORD
 2 1
 57     0.00000000000000     0.00000000000000     0.00000000000000
 57     1.64190447234582     1.64190447234582     1.64190447234582
=======
 0.00000000000000 3.28380861710556 3.28380861710556
 3.28380861710556 0.00000000000000 3.28380861710556
 3.28380861710556 3.28380861710556 0.00000000000000
PRIMCOORD
 2 1
 57     0.00000000000000     0.00000000000000     0.00000000000000
 57     1.64190430855278     1.64190430855278     1.64190430855278
>>>>>>> 7cc294e (Central volumes for PBE Z=97-103, and PBEsol and LDA for Z=1-103)
=======
 0.00000000000000 3.28380894469164 3.28380894469164
 3.28380894469164 0.00000000000000 3.28380894469164
 3.28380894469164 3.28380894469164 0.00000000000000
PRIMCOORD
 2 1
 57     0.00000000000000     0.00000000000000     0.00000000000000
 57     1.64190447234582     1.64190447234582     1.64190447234582
>>>>>>> e84099c (Update new central volumes and add script for consistency checks)
