CRYSTAL
PRIMVEC
<<<<<<< HEAD
 3.22244129881871 0.00000000000000 0.00000000000000
 0.00000000000000 3.22244129881871 0.00000000000000
 0.00000000000000 0.00000000000000 3.22244129881871
=======
 3.22244109559591 0.00000000000000 0.00000000000000
 0.00000000000000 3.22244109559591 0.00000000000000
 0.00000000000000 0.00000000000000 3.22244109559591
>>>>>>> 7cc294e (Central volumes for PBE Z=97-103, and PBEsol and LDA for Z=1-103)
PRIMCOORD
 1 1
 57     0.00000000000000     0.00000000000000     0.00000000000000
