CRYSTAL
PRIMVEC
<<<<<<< HEAD
 -1.71691370810460 1.71691370810460 1.71691370810460
 1.71691370810460 -1.71691370810460 1.71691370810460
 1.71691370810460 1.71691370810460 -1.71691370810460
=======
 -1.71691370669083 1.71691370669083 1.71691370669083
 1.71691370669083 -1.71691370669083 1.71691370669083
 1.71691370669083 1.71691370669083 -1.71691370669083
>>>>>>> 7cc294e (Central volumes for PBE Z=97-103, and PBEsol and LDA for Z=1-103)
PRIMCOORD
 1 1
  3     0.00000000000000     0.00000000000000     0.00000000000000
