CRYSTAL
PRIMVEC
<<<<<<< HEAD
 0.00000000000000 2.94218751772382 2.94218751772382
 2.94218751772382 0.00000000000000 2.94218751772382
 2.94218751772382 2.94218751772382 0.00000000000000
PRIMCOORD
 2 1
  3     0.00000000000000     0.00000000000000     0.00000000000000
  3     1.47109375886191     1.47109375886191     1.47109375886191
=======
 0.00000000000000 2.94218749487948 2.94218749487948
 2.94218749487948 0.00000000000000 2.94218749487948
 2.94218749487948 2.94218749487948 0.00000000000000
PRIMCOORD
 2 1
  3     0.00000000000000     0.00000000000000     0.00000000000000
  3     1.47109374743974     1.47109374743974     1.47109374743974
>>>>>>> 7cc294e (Central volumes for PBE Z=97-103, and PBEsol and LDA for Z=1-103)
