CRYSTAL
PRIMVEC
<<<<<<< HEAD
 0.00000000000000 2.16153599304001 2.16153599304001
 2.16153599304001 0.00000000000000 2.16153599304001
 2.16153599304001 2.16153599304001 0.00000000000000
=======
 0.00000000000000 2.16153598809379 2.16153598809379
 2.16153598809379 0.00000000000000 2.16153598809379
 2.16153598809379 2.16153598809379 0.00000000000000
>>>>>>> 7cc294e (Central volumes for PBE Z=97-103, and PBEsol and LDA for Z=1-103)
PRIMCOORD
 1 1
  3     0.00000000000000     0.00000000000000     0.00000000000000
