CRYSTAL
PRIMVEC
<<<<<<< HEAD
 2.73069251387625 0.00000000000000 0.00000000000000
 0.00000000000000 2.73069251387625 0.00000000000000
 0.00000000000000 0.00000000000000 2.73069251387625
=======
 2.73069251104884 0.00000000000000 0.00000000000000
 0.00000000000000 2.73069251104884 0.00000000000000
 0.00000000000000 0.00000000000000 2.73069251104884
>>>>>>> 7cc294e (Central volumes for PBE Z=97-103, and PBEsol and LDA for Z=1-103)
PRIMCOORD
 1 1
  3     0.00000000000000     0.00000000000000     0.00000000000000
