CRYSTAL
PRIMVEC
<<<<<<< HEAD
<<<<<<< HEAD
 -1.92424731531125 1.92424731531125 1.92424731531125
 1.92424731531125 -1.92424731531125 1.92424731531125
 1.92424731531125 1.92424731531125 -1.92424731531125
=======
 -1.92424731475354 1.92424731475354 1.92424731475354
 1.92424731475354 -1.92424731475354 1.92424731475354
 1.92424731475354 1.92424731475354 -1.92424731475354
>>>>>>> 7cc294e (Central volumes for PBE Z=97-103, and PBEsol and LDA for Z=1-103)
=======
 -1.92424731531125 1.92424731531125 1.92424731531125
 1.92424731531125 -1.92424731531125 1.92424731531125
 1.92424731531125 1.92424731531125 -1.92424731531125
>>>>>>> e84099c (Update new central volumes and add script for consistency checks)
PRIMCOORD
 1 1
 103     0.00000000000000     0.00000000000000     0.00000000000000
