CRYSTAL
PRIMVEC
<<<<<<< HEAD
 0.00000000000000 3.69231001106131 3.69231001106131
 3.69231001106131 0.00000000000000 3.69231001106131
 3.69231001106131 3.69231001106131 0.00000000000000
PRIMCOORD
 2 1
 103     0.00000000000000     0.00000000000000     0.00000000000000
 103     1.84615500553065     1.84615500553065     1.84615500553065
=======
 0.00000000000000 3.69231001077572 3.69231001077572
 3.69231001077572 0.00000000000000 3.69231001077572
 3.69231001077572 3.69231001077572 0.00000000000000
PRIMCOORD
 2 1
 103     0.00000000000000     0.00000000000000     0.00000000000000
 103     1.84615500538786     1.84615500538786     1.84615500538786
>>>>>>> 7cc294e (Central volumes for PBE Z=97-103, and PBEsol and LDA for Z=1-103)
