CRYSTAL
PRIMVEC
<<<<<<< HEAD
 3.18138807967026 0.00000000000000 0.00000000000000
 0.00000000000000 3.18138807967026 0.00000000000000
 0.00000000000000 0.00000000000000 3.18138807967026
=======
 3.18138805468370 0.00000000000000 0.00000000000000
 0.00000000000000 3.18138805468370 0.00000000000000
 0.00000000000000 0.00000000000000 3.18138805468370
>>>>>>> 7cc294e (Central volumes for PBE Z=97-103, and PBEsol and LDA for Z=1-103)
PRIMCOORD
 1 1
 103     0.00000000000000     0.00000000000000     0.00000000000000
