CRYSTAL
PRIMVEC
<<<<<<< HEAD
<<<<<<< HEAD
 0.00000000000000 3.58446809380324 3.58446809380324
 3.58446809380324 0.00000000000000 3.58446809380324
 3.58446809380324 3.58446809380324 0.00000000000000
PRIMCOORD
 2 1
 71     0.00000000000000     0.00000000000000     0.00000000000000
 71     1.79223404690162     1.79223404690162     1.79223404690162
=======
 0.00000000000000 3.58446808239494 3.58446808239494
 3.58446808239494 0.00000000000000 3.58446808239494
 3.58446808239494 3.58446808239494 0.00000000000000
PRIMCOORD
 2 1
 71     0.00000000000000     0.00000000000000     0.00000000000000
 71     1.79223404119747     1.79223404119747     1.79223404119747
>>>>>>> 7cc294e (Central volumes for PBE Z=97-103, and PBEsol and LDA for Z=1-103)
=======
 0.00000000000000 3.58446809380324 3.58446809380324
 3.58446809380324 0.00000000000000 3.58446809380324
 3.58446809380324 3.58446809380324 0.00000000000000
PRIMCOORD
 2 1
 71     0.00000000000000     0.00000000000000     0.00000000000000
 71     1.79223404690162     1.79223404690162     1.79223404690162
>>>>>>> e84099c (Update new central volumes and add script for consistency checks)
