CRYSTAL
PRIMVEC
<<<<<<< HEAD
 0.00000000000000 2.38643471542127 2.38643471542127
 2.38643471542127 0.00000000000000 2.38643471542127
 2.38643471542127 2.38643471542127 0.00000000000000
=======
 0.00000000000000 2.38643471473755 2.38643471473755
 2.38643471473755 0.00000000000000 2.38643471473755
 2.38643471473755 2.38643471473755 0.00000000000000
>>>>>>> 7cc294e (Central volumes for PBE Z=97-103, and PBEsol and LDA for Z=1-103)
PRIMCOORD
 1 1
 71     0.00000000000000     0.00000000000000     0.00000000000000
