CRYSTAL
PRIMVEC
<<<<<<< HEAD
 3.12901069985148 0.00000000000000 0.00000000000000
 0.00000000000000 3.12901069985148 0.00000000000000
 0.00000000000000 0.00000000000000 3.12901069985148
=======
 3.12901066983547 0.00000000000000 0.00000000000000
 0.00000000000000 3.12901066983547 0.00000000000000
 0.00000000000000 0.00000000000000 3.12901066983547
>>>>>>> 7cc294e (Central volumes for PBE Z=97-103, and PBEsol and LDA for Z=1-103)
PRIMCOORD
 1 1
 71     0.00000000000000     0.00000000000000     0.00000000000000
