CRYSTAL
PRIMVEC
<<<<<<< HEAD
<<<<<<< HEAD
 -1.94518725176990 1.94518725176990 1.94518725176990
 1.94518725176990 -1.94518725176990 1.94518725176990
 1.94518725176990 1.94518725176990 -1.94518725176990
=======
 -1.94518578343022 1.94518578343022 1.94518578343022
 1.94518578343022 -1.94518578343022 1.94518578343022
 1.94518578343022 1.94518578343022 -1.94518578343022
>>>>>>> 7cc294e (Central volumes for PBE Z=97-103, and PBEsol and LDA for Z=1-103)
=======
 -1.94518725176990 1.94518725176990 1.94518725176990
 1.94518725176990 -1.94518725176990 1.94518725176990
 1.94518725176990 1.94518725176990 -1.94518725176990
>>>>>>> e84099c (Update new central volumes and add script for consistency checks)
PRIMCOORD
 1 1
 101     0.00000000000000     0.00000000000000     0.00000000000000
