CRYSTAL
PRIMVEC
<<<<<<< HEAD
<<<<<<< HEAD
 0.00000000000000 4.04902551763989 4.04902551763989
 4.04902551763989 0.00000000000000 4.04902551763989
 4.04902551763989 4.04902551763989 0.00000000000000
PRIMCOORD
 2 1
 101     0.00000000000000     0.00000000000000     0.00000000000000
 101     2.02451275881994     2.02451275881994     2.02451275881994
=======
 0.00000000000000 4.04902331265467 4.04902331265467
 4.04902331265467 0.00000000000000 4.04902331265467
 4.04902331265467 4.04902331265467 0.00000000000000
PRIMCOORD
 2 1
 101     0.00000000000000     0.00000000000000     0.00000000000000
 101     2.02451165632734     2.02451165632734     2.02451165632734
>>>>>>> 7cc294e (Central volumes for PBE Z=97-103, and PBEsol and LDA for Z=1-103)
=======
 0.00000000000000 4.04902551763989 4.04902551763989
 4.04902551763989 0.00000000000000 4.04902551763989
 4.04902551763989 4.04902551763989 0.00000000000000
PRIMCOORD
 2 1
 101     0.00000000000000     0.00000000000000     0.00000000000000
 101     2.02451275881994     2.02451275881994     2.02451275881994
>>>>>>> e84099c (Update new central volumes and add script for consistency checks)
