CRYSTAL
PRIMVEC
<<<<<<< HEAD
 3.17932583025763 0.00000000000000 0.00000000000000
 0.00000000000000 3.17932583025763 0.00000000000000
 0.00000000000000 0.00000000000000 3.17932583025763
=======
 3.17932375170896 0.00000000000000 0.00000000000000
 0.00000000000000 3.17932375170896 0.00000000000000
 0.00000000000000 0.00000000000000 3.17932375170896
>>>>>>> 7cc294e (Central volumes for PBE Z=97-103, and PBEsol and LDA for Z=1-103)
PRIMCOORD
 1 1
 101     0.00000000000000     0.00000000000000     0.00000000000000
