CRYSTAL
PRIMVEC
<<<<<<< HEAD
<<<<<<< HEAD
 -1.77787358721410 1.77787358721410 1.77787358721410
 1.77787358721410 -1.77787358721410 1.77787358721410
 1.77787358721410 1.77787358721410 -1.77787358721410
=======
 -1.77787358111382 1.77787358111382 1.77787358111382
 1.77787358111382 -1.77787358111382 1.77787358111382
 1.77787358111382 1.77787358111382 -1.77787358111382
>>>>>>> 7cc294e (Central volumes for PBE Z=97-103, and PBEsol and LDA for Z=1-103)
=======
 -1.77787358721410 1.77787358721410 1.77787358721410
 1.77787358721410 -1.77787358721410 1.77787358721410
 1.77787358721410 1.77787358721410 -1.77787358721410
>>>>>>> e84099c (Update new central volumes and add script for consistency checks)
PRIMCOORD
 1 1
 12     0.00000000000000     0.00000000000000     0.00000000000000
