CRYSTAL
PRIMVEC
<<<<<<< HEAD
<<<<<<< HEAD
 0.00000000000000 3.38779261650776 3.38779261650776
 3.38779261650776 0.00000000000000 3.38779261650776
 3.38779261650776 3.38779261650776 0.00000000000000
PRIMCOORD
 2 1
 12     0.00000000000000     0.00000000000000     0.00000000000000
 12     1.69389630825388     1.69389630825388     1.69389630825388
=======
 0.00000000000000 3.38779261479132 3.38779261479132
 3.38779261479132 0.00000000000000 3.38779261479132
 3.38779261479132 3.38779261479132 0.00000000000000
PRIMCOORD
 2 1
 12     0.00000000000000     0.00000000000000     0.00000000000000
 12     1.69389630739566     1.69389630739566     1.69389630739566
>>>>>>> 7cc294e (Central volumes for PBE Z=97-103, and PBEsol and LDA for Z=1-103)
=======
 0.00000000000000 3.38779261650776 3.38779261650776
 3.38779261650776 0.00000000000000 3.38779261650776
 3.38779261650776 3.38779261650776 0.00000000000000
PRIMCOORD
 2 1
 12     0.00000000000000     0.00000000000000     0.00000000000000
 12     1.69389630825388     1.69389630825388     1.69389630825388
>>>>>>> e84099c (Update new central volumes and add script for consistency checks)
