CRYSTAL
PRIMVEC
<<<<<<< HEAD
<<<<<<< HEAD
 2.99644673221217 0.00000000000000 0.00000000000000
 0.00000000000000 2.99644673221217 0.00000000000000
 0.00000000000000 0.00000000000000 2.99644673221217
=======
 2.99644670583967 0.00000000000000 0.00000000000000
 0.00000000000000 2.99644670583967 0.00000000000000
 0.00000000000000 0.00000000000000 2.99644670583967
>>>>>>> 7cc294e (Central volumes for PBE Z=97-103, and PBEsol and LDA for Z=1-103)
=======
 2.99644673221217 0.00000000000000 0.00000000000000
 0.00000000000000 2.99644673221217 0.00000000000000
 0.00000000000000 0.00000000000000 2.99644673221217
>>>>>>> e84099c (Update new central volumes and add script for consistency checks)
PRIMCOORD
 1 1
 12     0.00000000000000     0.00000000000000     0.00000000000000
