CRYSTAL
PRIMVEC
<<<<<<< HEAD
 -1.37471398142630 1.37471398142630 1.37471398142630
 1.37471398142630 -1.37471398142630 1.37471398142630
 1.37471398142630 1.37471398142630 -1.37471398142630
=======
 -1.37471397375568 1.37471397375568 1.37471397375568
 1.37471397375568 -1.37471397375568 1.37471397375568
 1.37471397375568 1.37471397375568 -1.37471397375568
>>>>>>> 7cc294e (Central volumes for PBE Z=97-103, and PBEsol and LDA for Z=1-103)
PRIMCOORD
 1 1
 25     0.00000000000000     0.00000000000000     0.00000000000000
