CRYSTAL
PRIMVEC
<<<<<<< HEAD
<<<<<<< HEAD
 0.00000000000000 2.44104121340749 2.44104121340749
 2.44104121340749 0.00000000000000 2.44104121340749
 2.44104121340749 2.44104121340749 0.00000000000000
PRIMCOORD
 2 1
 25     0.00000000000000     0.00000000000000     0.00000000000000
 25     1.22052060670375     1.22052060670375     1.22052060670375
=======
 0.00000000000000 2.44104121150637 2.44104121150637
 2.44104121150637 0.00000000000000 2.44104121150637
 2.44104121150637 2.44104121150637 0.00000000000000
PRIMCOORD
 2 1
 25     0.00000000000000     0.00000000000000     0.00000000000000
 25     1.22052060575318     1.22052060575318     1.22052060575318
>>>>>>> 7cc294e (Central volumes for PBE Z=97-103, and PBEsol and LDA for Z=1-103)
=======
 0.00000000000000 2.44104121340749 2.44104121340749
 2.44104121340749 0.00000000000000 2.44104121340749
 2.44104121340749 2.44104121340749 0.00000000000000
PRIMCOORD
 2 1
 25     0.00000000000000     0.00000000000000     0.00000000000000
 25     1.22052060670375     1.22052060670375     1.22052060670375
>>>>>>> e84099c (Update new central volumes and add script for consistency checks)
