CRYSTAL
PRIMVEC
<<<<<<< HEAD
<<<<<<< HEAD
 0.00000000000000 1.73035129630836 1.73035129630836
 1.73035129630836 0.00000000000000 1.73035129630836
 1.73035129630836 1.73035129630836 0.00000000000000
=======
 0.00000000000000 1.73035128774648 1.73035128774648
 1.73035128774648 0.00000000000000 1.73035128774648
 1.73035128774648 1.73035128774648 0.00000000000000
>>>>>>> 7cc294e (Central volumes for PBE Z=97-103, and PBEsol and LDA for Z=1-103)
=======
 0.00000000000000 1.73035129630836 1.73035129630836
 1.73035129630836 0.00000000000000 1.73035129630836
 1.73035129630836 1.73035129630836 0.00000000000000
>>>>>>> e84099c (Update new central volumes and add script for consistency checks)
PRIMCOORD
 1 1
 25     0.00000000000000     0.00000000000000     0.00000000000000
