CRYSTAL
PRIMVEC
<<<<<<< HEAD
 2.25190949886444 0.00000000000000 0.00000000000000
 0.00000000000000 2.25190949886444 0.00000000000000
 0.00000000000000 0.00000000000000 2.25190949886444
=======
 2.25190948664117 0.00000000000000 0.00000000000000
 0.00000000000000 2.25190948664117 0.00000000000000
 0.00000000000000 0.00000000000000 2.25190948664117
>>>>>>> 7cc294e (Central volumes for PBE Z=97-103, and PBEsol and LDA for Z=1-103)
PRIMCOORD
 1 1
 25     0.00000000000000     0.00000000000000     0.00000000000000
