CRYSTAL
PRIMVEC
<<<<<<< HEAD
<<<<<<< HEAD
 0.00000000000000 2.80561385698485 2.80561385698485
 2.80561385698485 0.00000000000000 2.80561385698485
 2.80561385698485 2.80561385698485 0.00000000000000
PRIMCOORD
 2 1
 42     0.00000000000000     0.00000000000000     0.00000000000000
 42     1.40280692849242     1.40280692849242     1.40280692849242
=======
 0.00000000000000 2.80561385050085 2.80561385050085
 2.80561385050085 0.00000000000000 2.80561385050085
 2.80561385050085 2.80561385050085 0.00000000000000
PRIMCOORD
 2 1
 42     0.00000000000000     0.00000000000000     0.00000000000000
 42     1.40280692525042     1.40280692525042     1.40280692525042
>>>>>>> 7cc294e (Central volumes for PBE Z=97-103, and PBEsol and LDA for Z=1-103)
=======
 0.00000000000000 2.80561385698485 2.80561385698485
 2.80561385698485 0.00000000000000 2.80561385698485
 2.80561385698485 2.80561385698485 0.00000000000000
PRIMCOORD
 2 1
 42     0.00000000000000     0.00000000000000     0.00000000000000
 42     1.40280692849242     1.40280692849242     1.40280692849242
>>>>>>> e84099c (Update new central volumes and add script for consistency checks)
