CRYSTAL
PRIMVEC
<<<<<<< HEAD
 -1.19737831733411 1.19737831733411 1.19737831733411
 1.19737831733411 -1.19737831733411 1.19737831733411
 1.19737831733411 1.19737831733411 -1.19737831733411
=======
 -1.19737831717561 1.19737831717561 1.19737831717561
 1.19737831717561 -1.19737831717561 1.19737831717561
 1.19737831717561 1.19737831717561 -1.19737831717561
>>>>>>> 7cc294e (Central volumes for PBE Z=97-103, and PBEsol and LDA for Z=1-103)
PRIMCOORD
 1 1
  7     0.00000000000000     0.00000000000000     0.00000000000000
