CRYSTAL
PRIMVEC
<<<<<<< HEAD
 0.00000000000000 2.06455054888322 2.06455054888322
 2.06455054888322 0.00000000000000 2.06455054888322
 2.06455054888322 2.06455054888322 0.00000000000000
PRIMCOORD
 2 1
  7     0.00000000000000     0.00000000000000     0.00000000000000
  7     1.03227527444161     1.03227527444161     1.03227527444161
=======
 0.00000000000000 2.06455053998771 2.06455053998771
 2.06455053998771 0.00000000000000 2.06455053998771
 2.06455053998771 2.06455053998771 0.00000000000000
PRIMCOORD
 2 1
  7     0.00000000000000     0.00000000000000     0.00000000000000
  7     1.03227526999386     1.03227526999386     1.03227526999386
>>>>>>> 7cc294e (Central volumes for PBE Z=97-103, and PBEsol and LDA for Z=1-103)
