CRYSTAL
PRIMVEC
<<<<<<< HEAD
 1.83254920107314 0.00000000000000 0.00000000000000
 0.00000000000000 1.83254920107314 0.00000000000000
 0.00000000000000 0.00000000000000 1.83254920107314
=======
 1.83254887828321 0.00000000000000 0.00000000000000
 0.00000000000000 1.83254887828321 0.00000000000000
 0.00000000000000 0.00000000000000 1.83254887828321
>>>>>>> 7cc294e (Central volumes for PBE Z=97-103, and PBEsol and LDA for Z=1-103)
PRIMCOORD
 1 1
  7     0.00000000000000     0.00000000000000     0.00000000000000
