CRYSTAL
PRIMVEC
<<<<<<< HEAD
<<<<<<< HEAD
 -2.08583154806739 2.08583154806739 2.08583154806739
 2.08583154806739 -2.08583154806739 2.08583154806739
 2.08583154806739 2.08583154806739 -2.08583154806739
=======
 -2.08583154755617 2.08583154755617 2.08583154755617
 2.08583154755617 -2.08583154755617 2.08583154755617
 2.08583154755617 2.08583154755617 -2.08583154755617
>>>>>>> 7cc294e (Central volumes for PBE Z=97-103, and PBEsol and LDA for Z=1-103)
=======
 -2.08583154806739 2.08583154806739 2.08583154806739
 2.08583154806739 -2.08583154806739 2.08583154806739
 2.08583154806739 2.08583154806739 -2.08583154806739
>>>>>>> e84099c (Update new central volumes and add script for consistency checks)
PRIMCOORD
 1 1
 11     0.00000000000000     0.00000000000000     0.00000000000000
