CRYSTAL
PRIMVEC
<<<<<<< HEAD
<<<<<<< HEAD
 0.00000000000000 3.74502144112404 3.74502144112404
 3.74502144112404 0.00000000000000 3.74502144112404
 3.74502144112404 3.74502144112404 0.00000000000000
PRIMCOORD
 2 1
 11     0.00000000000000     0.00000000000000     0.00000000000000
 11     1.87251072056202     1.87251072056202     1.87251072056202
=======
 0.00000000000000 3.74502144096701 3.74502144096701
 3.74502144096701 0.00000000000000 3.74502144096701
 3.74502144096701 3.74502144096701 0.00000000000000
PRIMCOORD
 2 1
 11     0.00000000000000     0.00000000000000     0.00000000000000
 11     1.87251072048351     1.87251072048351     1.87251072048351
>>>>>>> 7cc294e (Central volumes for PBE Z=97-103, and PBEsol and LDA for Z=1-103)
=======
 0.00000000000000 3.74502144112404 3.74502144112404
 3.74502144112404 0.00000000000000 3.74502144112404
 3.74502144112404 3.74502144112404 0.00000000000000
PRIMCOORD
 2 1
 11     0.00000000000000     0.00000000000000     0.00000000000000
 11     1.87251072056202     1.87251072056202     1.87251072056202
>>>>>>> e84099c (Update new central volumes and add script for consistency checks)
