CRYSTAL
PRIMVEC
<<<<<<< HEAD
<<<<<<< HEAD
 3.38737612595603 0.00000000000000 0.00000000000000
 0.00000000000000 3.38737612595603 0.00000000000000
 0.00000000000000 0.00000000000000 3.38737612595603
=======
 3.38737603832288 0.00000000000000 0.00000000000000
 0.00000000000000 3.38737603832288 0.00000000000000
 0.00000000000000 0.00000000000000 3.38737603832288
>>>>>>> 7cc294e (Central volumes for PBE Z=97-103, and PBEsol and LDA for Z=1-103)
=======
 3.38737612595603 0.00000000000000 0.00000000000000
 0.00000000000000 3.38737612595603 0.00000000000000
 0.00000000000000 0.00000000000000 3.38737612595603
>>>>>>> e84099c (Update new central volumes and add script for consistency checks)
PRIMCOORD
 1 1
 11     0.00000000000000     0.00000000000000     0.00000000000000
