CRYSTAL
PRIMVEC
<<<<<<< HEAD
 -1.63600533233364 1.63600533233364 1.63600533233364
 1.63600533233364 -1.63600533233364 1.63600533233364
 1.63600533233364 1.63600533233364 -1.63600533233364
=======
 -1.63600533152409 1.63600533152409 1.63600533152409
 1.63600533152409 -1.63600533152409 1.63600533152409
 1.63600533152409 1.63600533152409 -1.63600533152409
>>>>>>> 7cc294e (Central volumes for PBE Z=97-103, and PBEsol and LDA for Z=1-103)
PRIMCOORD
 1 1
 41     0.00000000000000     0.00000000000000     0.00000000000000
