CRYSTAL
PRIMVEC
<<<<<<< HEAD
 0.00000000000000 2.90410071028542 2.90410071028542
 2.90410071028542 0.00000000000000 2.90410071028542
 2.90410071028542 2.90410071028542 0.00000000000000
PRIMCOORD
 2 1
 41     0.00000000000000     0.00000000000000     0.00000000000000
 41     1.45205035514271     1.45205035514271     1.45205035514271
=======
 0.00000000000000 2.90410070330738 2.90410070330738
 2.90410070330738 0.00000000000000 2.90410070330738
 2.90410070330738 2.90410070330738 0.00000000000000
PRIMCOORD
 2 1
 41     0.00000000000000     0.00000000000000     0.00000000000000
 41     1.45205035165369     1.45205035165369     1.45205035165369
>>>>>>> 7cc294e (Central volumes for PBE Z=97-103, and PBEsol and LDA for Z=1-103)
