CRYSTAL
PRIMVEC
<<<<<<< HEAD
 0.00000000000000 2.08524137660070 2.08524137660070
 2.08524137660070 0.00000000000000 2.08524137660070
 2.08524137660070 2.08524137660070 0.00000000000000
=======
 0.00000000000000 2.08524137630940 2.08524137630940
 2.08524137630940 0.00000000000000 2.08524137630940
 2.08524137630940 2.08524137630940 0.00000000000000
>>>>>>> 7cc294e (Central volumes for PBE Z=97-103, and PBEsol and LDA for Z=1-103)
PRIMCOORD
 1 1
 41     0.00000000000000     0.00000000000000     0.00000000000000
