CRYSTAL
PRIMVEC
<<<<<<< HEAD
<<<<<<< HEAD
 2.68429777921766 0.00000000000000 0.00000000000000
 0.00000000000000 2.68429777921766 0.00000000000000
 0.00000000000000 0.00000000000000 2.68429777921766
=======
 2.68429775676117 0.00000000000000 0.00000000000000
 0.00000000000000 2.68429775676117 0.00000000000000
 0.00000000000000 0.00000000000000 2.68429775676117
>>>>>>> 7cc294e (Central volumes for PBE Z=97-103, and PBEsol and LDA for Z=1-103)
=======
 2.68429777921766 0.00000000000000 0.00000000000000
 0.00000000000000 2.68429777921766 0.00000000000000
 0.00000000000000 0.00000000000000 2.68429777921766
>>>>>>> e84099c (Update new central volumes and add script for consistency checks)
PRIMCOORD
 1 1
 41     0.00000000000000     0.00000000000000     0.00000000000000
