CRYSTAL
PRIMVEC
<<<<<<< HEAD
 -1.65941238470124 1.65941238470124 1.65941238470124
 1.65941238470124 -1.65941238470124 1.65941238470124
 1.65941238470124 1.65941238470124 -1.65941238470124
=======
 -1.65941237822068 1.65941237822068 1.65941237822068
 1.65941237822068 -1.65941237822068 1.65941237822068
 1.65941237822068 1.65941237822068 -1.65941237822068
>>>>>>> 7cc294e (Central volumes for PBE Z=97-103, and PBEsol and LDA for Z=1-103)
PRIMCOORD
 1 1
 60     0.00000000000000     0.00000000000000     0.00000000000000
