CRYSTAL
PRIMVEC
<<<<<<< HEAD
 0.00000000000000 2.82188389218148 2.82188389218148
 2.82188389218148 0.00000000000000 2.82188389218148
 2.82188389218148 2.82188389218148 0.00000000000000
PRIMCOORD
 2 1
 60     0.00000000000000     0.00000000000000     0.00000000000000
 60     1.41094194609074     1.41094194609074     1.41094194609074
=======
 0.00000000000000 2.82188389101332 2.82188389101332
 2.82188389101332 0.00000000000000 2.82188389101332
 2.82188389101332 2.82188389101332 0.00000000000000
PRIMCOORD
 2 1
 60     0.00000000000000     0.00000000000000     0.00000000000000
 60     1.41094194550666     1.41094194550666     1.41094194550666
>>>>>>> 7cc294e (Central volumes for PBE Z=97-103, and PBEsol and LDA for Z=1-103)
