CRYSTAL
PRIMVEC
<<<<<<< HEAD
<<<<<<< HEAD
 2.56989317658666 0.00000000000000 0.00000000000000
 0.00000000000000 2.56989317658666 0.00000000000000
 0.00000000000000 0.00000000000000 2.56989317658666
=======
 2.56989317165430 0.00000000000000 0.00000000000000
 0.00000000000000 2.56989317165430 0.00000000000000
 0.00000000000000 0.00000000000000 2.56989317165430
>>>>>>> 7cc294e (Central volumes for PBE Z=97-103, and PBEsol and LDA for Z=1-103)
=======
 2.56989317658666 0.00000000000000 0.00000000000000
 0.00000000000000 2.56989317658666 0.00000000000000
 0.00000000000000 0.00000000000000 2.56989317658666
>>>>>>> e84099c (Update new central volumes and add script for consistency checks)
PRIMCOORD
 1 1
 60     0.00000000000000     0.00000000000000     0.00000000000000
