CRYSTAL
PRIMVEC
<<<<<<< HEAD
 -1.87305484582081 1.87305484582081 1.87305484582081
 1.87305484582081 -1.87305484582081 1.87305484582081
 1.87305484582081 1.87305484582081 -1.87305484582081
=======
 -1.87305462680675 1.87305462680675 1.87305462680675
 1.87305462680675 -1.87305462680675 1.87305462680675
 1.87305462680675 1.87305462680675 -1.87305462680675
>>>>>>> 7cc294e (Central volumes for PBE Z=97-103, and PBEsol and LDA for Z=1-103)
PRIMCOORD
 1 1
 10     0.00000000000000     0.00000000000000     0.00000000000000
