CRYSTAL
PRIMVEC
<<<<<<< HEAD
<<<<<<< HEAD
 0.00000000000000 3.62166679073418 3.62166679073418
 3.62166679073418 0.00000000000000 3.62166679073418
 3.62166679073418 3.62166679073418 0.00000000000000
PRIMCOORD
 2 1
 10     0.00000000000000     0.00000000000000     0.00000000000000
 10     1.81083339536709     1.81083339536709     1.81083339536709
=======
 0.00000000000000 3.62166659325507 3.62166659325507
 3.62166659325507 0.00000000000000 3.62166659325507
 3.62166659325507 3.62166659325507 0.00000000000000
PRIMCOORD
 2 1
 10     0.00000000000000     0.00000000000000     0.00000000000000
 10     1.81083329662753     1.81083329662753     1.81083329662753
>>>>>>> 7cc294e (Central volumes for PBE Z=97-103, and PBEsol and LDA for Z=1-103)
=======
 0.00000000000000 3.62166679073418 3.62166679073418
 3.62166679073418 0.00000000000000 3.62166679073418
 3.62166679073418 3.62166679073418 0.00000000000000
PRIMCOORD
 2 1
 10     0.00000000000000     0.00000000000000     0.00000000000000
 10     1.81083339536709     1.81083339536709     1.81083339536709
>>>>>>> e84099c (Update new central volumes and add script for consistency checks)
