CRYSTAL
PRIMVEC
<<<<<<< HEAD
<<<<<<< HEAD
 3.17067126598162 0.00000000000000 0.00000000000000
 0.00000000000000 3.17067126598162 0.00000000000000
 0.00000000000000 0.00000000000000 3.17067126598162
=======
 3.17067124226896 0.00000000000000 0.00000000000000
 0.00000000000000 3.17067124226896 0.00000000000000
 0.00000000000000 0.00000000000000 3.17067124226896
>>>>>>> 7cc294e (Central volumes for PBE Z=97-103, and PBEsol and LDA for Z=1-103)
=======
 3.17067126598162 0.00000000000000 0.00000000000000
 0.00000000000000 3.17067126598162 0.00000000000000
 0.00000000000000 0.00000000000000 3.17067126598162
>>>>>>> e84099c (Update new central volumes and add script for consistency checks)
PRIMCOORD
 1 1
 10     0.00000000000000     0.00000000000000     0.00000000000000
