CRYSTAL
PRIMVEC
<<<<<<< HEAD
<<<<<<< HEAD
 -1.37462180988835 1.37462180988835 1.37462180988835
 1.37462180988835 -1.37462180988835 1.37462180988835
 1.37462180988835 1.37462180988835 -1.37462180988835
=======
 -1.37462180874262 1.37462180874262 1.37462180874262
 1.37462180874262 -1.37462180874262 1.37462180874262
 1.37462180874262 1.37462180874262 -1.37462180874262
>>>>>>> 7cc294e (Central volumes for PBE Z=97-103, and PBEsol and LDA for Z=1-103)
=======
 -1.37462180988835 1.37462180988835 1.37462180988835
 1.37462180988835 -1.37462180988835 1.37462180988835
 1.37462180988835 1.37462180988835 -1.37462180988835
>>>>>>> e84099c (Update new central volumes and add script for consistency checks)
PRIMCOORD
 1 1
 28     0.00000000000000     0.00000000000000     0.00000000000000
