CRYSTAL
PRIMVEC
<<<<<<< HEAD
<<<<<<< HEAD
 0.00000000000000 2.49943190476768 2.49943190476768
 2.49943190476768 0.00000000000000 2.49943190476768
 2.49943190476768 2.49943190476768 0.00000000000000
PRIMCOORD
 2 1
 28     0.00000000000000     0.00000000000000     0.00000000000000
 28     1.24971595238384     1.24971595238384     1.24971595238384
=======
 0.00000000000000 2.49943188830084 2.49943188830084
 2.49943188830084 0.00000000000000 2.49943188830084
 2.49943188830084 2.49943188830084 0.00000000000000
PRIMCOORD
 2 1
 28     0.00000000000000     0.00000000000000     0.00000000000000
 28     1.24971594415042     1.24971594415042     1.24971594415042
>>>>>>> 7cc294e (Central volumes for PBE Z=97-103, and PBEsol and LDA for Z=1-103)
=======
 0.00000000000000 2.49943190476768 2.49943190476768
 2.49943190476768 0.00000000000000 2.49943190476768
 2.49943190476768 2.49943190476768 0.00000000000000
PRIMCOORD
 2 1
 28     0.00000000000000     0.00000000000000     0.00000000000000
 28     1.24971595238384     1.24971595238384     1.24971595238384
>>>>>>> e84099c (Update new central volumes and add script for consistency checks)
