CRYSTAL
PRIMVEC
<<<<<<< HEAD
 0.00000000000000 1.72885567849068 1.72885567849068
 1.72885567849068 0.00000000000000 1.72885567849068
 1.72885567849068 1.72885567849068 0.00000000000000
=======
 0.00000000000000 1.72885567757928 1.72885567757928
 1.72885567757928 0.00000000000000 1.72885567757928
 1.72885567757928 1.72885567757928 0.00000000000000
>>>>>>> 7cc294e (Central volumes for PBE Z=97-103, and PBEsol and LDA for Z=1-103)
PRIMCOORD
 1 1
 28     0.00000000000000     0.00000000000000     0.00000000000000
