CRYSTAL
PRIMVEC
<<<<<<< HEAD
 2.28513388012074 0.00000000000000 0.00000000000000
 0.00000000000000 2.28513388012074 0.00000000000000
 0.00000000000000 0.00000000000000 2.28513388012074
=======
 2.28513387910617 0.00000000000000 0.00000000000000
 0.00000000000000 2.28513387910617 0.00000000000000
 0.00000000000000 0.00000000000000 2.28513387910617
>>>>>>> 7cc294e (Central volumes for PBE Z=97-103, and PBEsol and LDA for Z=1-103)
PRIMCOORD
 1 1
 28     0.00000000000000     0.00000000000000     0.00000000000000
