CRYSTAL
PRIMVEC
<<<<<<< HEAD
<<<<<<< HEAD
 -2.05293799908970 2.05293799908970 2.05293799908970
 2.05293799908970 -2.05293799908970 2.05293799908970
 2.05293799908970 2.05293799908970 -2.05293799908970
=======
 -2.05293756740596 2.05293756740596 2.05293756740596
 2.05293756740596 -2.05293756740596 2.05293756740596
 2.05293756740596 2.05293756740596 -2.05293756740596
>>>>>>> 7cc294e (Central volumes for PBE Z=97-103, and PBEsol and LDA for Z=1-103)
=======
 -2.05293799908970 2.05293799908970 2.05293799908970
 2.05293799908970 -2.05293799908970 2.05293799908970
 2.05293799908970 2.05293799908970 -2.05293799908970
>>>>>>> e84099c (Update new central volumes and add script for consistency checks)
PRIMCOORD
 1 1
 102     0.00000000000000     0.00000000000000     0.00000000000000
