CRYSTAL
PRIMVEC
<<<<<<< HEAD
<<<<<<< HEAD
 0.00000000000000 4.49133112828202 4.49133112828202
 4.49133112828202 0.00000000000000 4.49133112828202
 4.49133112828202 4.49133112828202 0.00000000000000
PRIMCOORD
 2 1
 102     0.00000000000000     0.00000000000000     0.00000000000000
 102     2.24566556414101     2.24566556414101     2.24566556414101
=======
 0.00000000000000 4.49133101492081 4.49133101492081
 4.49133101492081 0.00000000000000 4.49133101492081
 4.49133101492081 4.49133101492081 0.00000000000000
PRIMCOORD
 2 1
 102     0.00000000000000     0.00000000000000     0.00000000000000
 102     2.24566550746041     2.24566550746041     2.24566550746041
>>>>>>> 7cc294e (Central volumes for PBE Z=97-103, and PBEsol and LDA for Z=1-103)
=======
 0.00000000000000 4.49133112828202 4.49133112828202
 4.49133112828202 0.00000000000000 4.49133112828202
 4.49133112828202 4.49133112828202 0.00000000000000
PRIMCOORD
 2 1
 102     0.00000000000000     0.00000000000000     0.00000000000000
 102     2.24566556414101     2.24566556414101     2.24566556414101
>>>>>>> e84099c (Update new central volumes and add script for consistency checks)
