CRYSTAL
PRIMVEC
<<<<<<< HEAD
<<<<<<< HEAD
 3.40234093455888 0.00000000000000 0.00000000000000
 0.00000000000000 3.40234093455888 0.00000000000000
 0.00000000000000 0.00000000000000 3.40234093455888
=======
 3.40233973119058 0.00000000000000 0.00000000000000
 0.00000000000000 3.40233973119058 0.00000000000000
 0.00000000000000 0.00000000000000 3.40233973119058
>>>>>>> 7cc294e (Central volumes for PBE Z=97-103, and PBEsol and LDA for Z=1-103)
=======
 3.40234093455888 0.00000000000000 0.00000000000000
 0.00000000000000 3.40234093455888 0.00000000000000
 0.00000000000000 0.00000000000000 3.40234093455888
>>>>>>> e84099c (Update new central volumes and add script for consistency checks)
PRIMCOORD
 1 1
 102     0.00000000000000     0.00000000000000     0.00000000000000
