CRYSTAL
PRIMVEC
<<<<<<< HEAD
 -1.61621828412179 1.61621828412179 1.61621828412179
 1.61621828412179 -1.61621828412179 1.61621828412179
 1.61621828412179 1.61621828412179 -1.61621828412179
=======
 -1.61621827430926 1.61621827430926 1.61621827430926
 1.61621827430926 -1.61621827430926 1.61621827430926
 1.61621827430926 1.61621827430926 -1.61621827430926
>>>>>>> 7cc294e (Central volumes for PBE Z=97-103, and PBEsol and LDA for Z=1-103)
PRIMCOORD
 1 1
 93     0.00000000000000     0.00000000000000     0.00000000000000
