CRYSTAL
PRIMVEC
<<<<<<< HEAD
 0.00000000000000 2.74871141112191 2.74871141112191
 2.74871141112191 0.00000000000000 2.74871141112191
 2.74871141112191 2.74871141112191 0.00000000000000
PRIMCOORD
 2 1
 93     0.00000000000000     0.00000000000000     0.00000000000000
 93     1.37435570556095     1.37435570556095     1.37435570556095
=======
 0.00000000000000 2.74871131885731 2.74871131885731
 2.74871131885731 0.00000000000000 2.74871131885731
 2.74871131885731 2.74871131885731 0.00000000000000
PRIMCOORD
 2 1
 93     0.00000000000000     0.00000000000000     0.00000000000000
 93     1.37435565942866     1.37435565942866     1.37435565942866
>>>>>>> 7cc294e (Central volumes for PBE Z=97-103, and PBEsol and LDA for Z=1-103)
