CRYSTAL
PRIMVEC
<<<<<<< HEAD
 2.54641866498890 0.00000000000000 0.00000000000000
 0.00000000000000 2.54641866498890 0.00000000000000
 0.00000000000000 0.00000000000000 2.54641866498890
=======
 2.54641861175154 0.00000000000000 0.00000000000000
 0.00000000000000 2.54641861175154 0.00000000000000
 0.00000000000000 0.00000000000000 2.54641861175154
>>>>>>> 7cc294e (Central volumes for PBE Z=97-103, and PBEsol and LDA for Z=1-103)
PRIMCOORD
 1 1
 93     0.00000000000000     0.00000000000000     0.00000000000000
