CRYSTAL
PRIMVEC
<<<<<<< HEAD
<<<<<<< HEAD
 -1.22284894149401 1.22284894149401 1.22284894149401
 1.22284894149401 -1.22284894149401 1.22284894149401
 1.22284894149401 1.22284894149401 -1.22284894149401
=======
 -1.22284894096815 1.22284894096815 1.22284894096815
 1.22284894096815 -1.22284894096815 1.22284894096815
 1.22284894096815 1.22284894096815 -1.22284894096815
>>>>>>> 7cc294e (Central volumes for PBE Z=97-103, and PBEsol and LDA for Z=1-103)
=======
 -1.22284894149401 1.22284894149401 1.22284894149401
 1.22284894149401 -1.22284894149401 1.22284894149401
 1.22284894149401 1.22284894149401 -1.22284894149401
>>>>>>> e84099c (Update new central volumes and add script for consistency checks)
PRIMCOORD
 1 1
  8     0.00000000000000     0.00000000000000     0.00000000000000
