CRYSTAL
PRIMVEC
<<<<<<< HEAD
<<<<<<< HEAD
 0.00000000000000 2.16952125712177 2.16952125712177
 2.16952125712177 0.00000000000000 2.16952125712177
 2.16952125712177 2.16952125712177 0.00000000000000
PRIMCOORD
 2 1
  8     0.00000000000000     0.00000000000000     0.00000000000000
  8     1.08476062856088     1.08476062856088     1.08476062856088
=======
 0.00000000000000 2.16952125612697 2.16952125612697
 2.16952125612697 0.00000000000000 2.16952125612697
 2.16952125612697 2.16952125612697 0.00000000000000
PRIMCOORD
 2 1
  8     0.00000000000000     0.00000000000000     0.00000000000000
  8     1.08476062806348     1.08476062806348     1.08476062806348
>>>>>>> 7cc294e (Central volumes for PBE Z=97-103, and PBEsol and LDA for Z=1-103)
=======
 0.00000000000000 2.16952125712177 2.16952125712177
 2.16952125712177 0.00000000000000 2.16952125712177
 2.16952125712177 2.16952125712177 0.00000000000000
PRIMCOORD
 2 1
  8     0.00000000000000     0.00000000000000     0.00000000000000
  8     1.08476062856088     1.08476062856088     1.08476062856088
>>>>>>> e84099c (Update new central volumes and add script for consistency checks)
