CRYSTAL
PRIMVEC
<<<<<<< HEAD
 0.00000000000000 1.55330064951977 1.55330064951977
 1.55330064951977 0.00000000000000 1.55330064951977
 1.55330064951977 1.55330064951977 0.00000000000000
=======
 0.00000000000000 1.55330064913187 1.55330064913187
 1.55330064913187 0.00000000000000 1.55330064913187
 1.55330064913187 1.55330064913187 0.00000000000000
>>>>>>> 7cc294e (Central volumes for PBE Z=97-103, and PBEsol and LDA for Z=1-103)
PRIMCOORD
 1 1
  8     0.00000000000000     0.00000000000000     0.00000000000000
