CRYSTAL
PRIMVEC
<<<<<<< HEAD
 1.96185964702652 0.00000000000000 0.00000000000000
 0.00000000000000 1.96185964702652 0.00000000000000
 0.00000000000000 0.00000000000000 1.96185964702652
=======
 1.96185964698531 0.00000000000000 0.00000000000000
 0.00000000000000 1.96185964698531 0.00000000000000
 0.00000000000000 0.00000000000000 1.96185964698531
>>>>>>> 7cc294e (Central volumes for PBE Z=97-103, and PBEsol and LDA for Z=1-103)
PRIMCOORD
 1 1
  8     0.00000000000000     0.00000000000000     0.00000000000000
