CRYSTAL
PRIMVEC
<<<<<<< HEAD
<<<<<<< HEAD
 -1.53113617866766 1.53113617866766 1.53113617866766
 1.53113617866766 -1.53113617866766 1.53113617866766
 1.53113617866766 1.53113617866766 -1.53113617866766
=======
 -1.53113617709827 1.53113617709827 1.53113617709827
 1.53113617709827 -1.53113617709827 1.53113617709827
 1.53113617709827 1.53113617709827 -1.53113617709827
>>>>>>> 7cc294e (Central volumes for PBE Z=97-103, and PBEsol and LDA for Z=1-103)
=======
 -1.53113617866766 1.53113617866766 1.53113617866766
 1.53113617866766 -1.53113617866766 1.53113617866766
 1.53113617866766 1.53113617866766 -1.53113617866766
>>>>>>> e84099c (Update new central volumes and add script for consistency checks)
PRIMCOORD
 1 1
 76     0.00000000000000     0.00000000000000     0.00000000000000
