CRYSTAL
PRIMVEC
<<<<<<< HEAD
 0.00000000000000 2.75108450423386 2.75108450423386
 2.75108450423386 0.00000000000000 2.75108450423386
 2.75108450423386 2.75108450423386 0.00000000000000
PRIMCOORD
 2 1
 76     0.00000000000000     0.00000000000000     0.00000000000000
 76     1.37554225211693     1.37554225211693     1.37554225211693
=======
 0.00000000000000 2.75108448763054 2.75108448763054
 2.75108448763054 0.00000000000000 2.75108448763054
 2.75108448763054 2.75108448763054 0.00000000000000
PRIMCOORD
 2 1
 76     0.00000000000000     0.00000000000000     0.00000000000000
 76     1.37554224381527     1.37554224381527     1.37554224381527
>>>>>>> 7cc294e (Central volumes for PBE Z=97-103, and PBEsol and LDA for Z=1-103)
