CRYSTAL
PRIMVEC
<<<<<<< HEAD
 0.00000000000000 1.91061161654022 1.91061161654022
 1.91061161654022 0.00000000000000 1.91061161654022
 1.91061161654022 1.91061161654022 0.00000000000000
=======
 0.00000000000000 1.91061161384500 1.91061161384500
 1.91061161384500 0.00000000000000 1.91061161384500
 1.91061161384500 1.91061161384500 0.00000000000000
>>>>>>> 7cc294e (Central volumes for PBE Z=97-103, and PBEsol and LDA for Z=1-103)
PRIMCOORD
 1 1
 76     0.00000000000000     0.00000000000000     0.00000000000000
