CRYSTAL
PRIMVEC
<<<<<<< HEAD
<<<<<<< HEAD
 2.53081338008391 0.00000000000000 0.00000000000000
 0.00000000000000 2.53081338008391 0.00000000000000
 0.00000000000000 0.00000000000000 2.53081338008391
=======
 2.53081336625453 0.00000000000000 0.00000000000000
 0.00000000000000 2.53081336625453 0.00000000000000
 0.00000000000000 0.00000000000000 2.53081336625453
>>>>>>> 7cc294e (Central volumes for PBE Z=97-103, and PBEsol and LDA for Z=1-103)
=======
 2.53081338008391 0.00000000000000 0.00000000000000
 0.00000000000000 2.53081338008391 0.00000000000000
 0.00000000000000 0.00000000000000 2.53081338008391
>>>>>>> e84099c (Update new central volumes and add script for consistency checks)
PRIMCOORD
 1 1
 76     0.00000000000000     0.00000000000000     0.00000000000000
