CRYSTAL
PRIMVEC
<<<<<<< HEAD
<<<<<<< HEAD
 0.00000000000000 2.68945652489632 2.68945652489632
 2.68945652489632 0.00000000000000 2.68945652489632
 2.68945652489632 2.68945652489632 0.00000000000000
PRIMCOORD
 2 1
 15     0.00000000000000     0.00000000000000     0.00000000000000
 15     1.34472826244816     1.34472826244816     1.34472826244816
=======
 0.00000000000000 2.68945650172905 2.68945650172905
 2.68945650172905 0.00000000000000 2.68945650172905
 2.68945650172905 2.68945650172905 0.00000000000000
PRIMCOORD
 2 1
 15     0.00000000000000     0.00000000000000     0.00000000000000
 15     1.34472825086452     1.34472825086452     1.34472825086452
>>>>>>> 7cc294e (Central volumes for PBE Z=97-103, and PBEsol and LDA for Z=1-103)
=======
 0.00000000000000 2.68945652489632 2.68945652489632
 2.68945652489632 0.00000000000000 2.68945652489632
 2.68945652489632 2.68945652489632 0.00000000000000
PRIMCOORD
 2 1
 15     0.00000000000000     0.00000000000000     0.00000000000000
 15     1.34472826244816     1.34472826244816     1.34472826244816
>>>>>>> e84099c (Update new central volumes and add script for consistency checks)
