CRYSTAL
PRIMVEC
<<<<<<< HEAD
 2.42192112278646 0.00000000000000 0.00000000000000
 0.00000000000000 2.42192112278646 0.00000000000000
 0.00000000000000 0.00000000000000 2.42192112278646
=======
 2.42192112136324 0.00000000000000 0.00000000000000
 0.00000000000000 2.42192112136324 0.00000000000000
 0.00000000000000 0.00000000000000 2.42192112136324
>>>>>>> 7cc294e (Central volumes for PBE Z=97-103, and PBEsol and LDA for Z=1-103)
PRIMCOORD
 1 1
 15     0.00000000000000     0.00000000000000     0.00000000000000
