CRYSTAL
PRIMVEC
<<<<<<< HEAD
 -1.80218838887722 1.80218838887722 1.80218838887722
 1.80218838887722 -1.80218838887722 1.80218838887722
 1.80218838887722 1.80218838887722 -1.80218838887722
=======
 -1.80218830133196 1.80218830133196 1.80218830133196
 1.80218830133196 -1.80218830133196 1.80218830133196
 1.80218830133196 1.80218830133196 -1.80218830133196
>>>>>>> 7cc294e (Central volumes for PBE Z=97-103, and PBEsol and LDA for Z=1-103)
PRIMCOORD
 1 1
 91     0.00000000000000     0.00000000000000     0.00000000000000
