CRYSTAL
PRIMVEC
<<<<<<< HEAD
<<<<<<< HEAD
 0.00000000000000 3.07504151429589 3.07504151429589
 3.07504151429589 0.00000000000000 3.07504151429589
 3.07504151429589 3.07504151429589 0.00000000000000
PRIMCOORD
 2 1
 91     0.00000000000000     0.00000000000000     0.00000000000000
 91     1.53752075714795     1.53752075714795     1.53752075714795
=======
 0.00000000000000 3.07504128184468 3.07504128184468
 3.07504128184468 0.00000000000000 3.07504128184468
 3.07504128184468 3.07504128184468 0.00000000000000
PRIMCOORD
 2 1
 91     0.00000000000000     0.00000000000000     0.00000000000000
 91     1.53752064092234     1.53752064092234     1.53752064092234
>>>>>>> 7cc294e (Central volumes for PBE Z=97-103, and PBEsol and LDA for Z=1-103)
=======
 0.00000000000000 3.07504151429589 3.07504151429589
 3.07504151429589 0.00000000000000 3.07504151429589
 3.07504151429589 3.07504151429589 0.00000000000000
PRIMCOORD
 2 1
 91     0.00000000000000     0.00000000000000     0.00000000000000
 91     1.53752075714795     1.53752075714795     1.53752075714795
>>>>>>> e84099c (Update new central volumes and add script for consistency checks)
