CRYSTAL
PRIMVEC
<<<<<<< HEAD
<<<<<<< HEAD
 2.82296391223986 0.00000000000000 0.00000000000000
 0.00000000000000 2.82296391223986 0.00000000000000
 0.00000000000000 0.00000000000000 2.82296391223986
=======
 2.82296253934979 0.00000000000000 0.00000000000000
 0.00000000000000 2.82296253934979 0.00000000000000
 0.00000000000000 0.00000000000000 2.82296253934979
>>>>>>> 7cc294e (Central volumes for PBE Z=97-103, and PBEsol and LDA for Z=1-103)
=======
 2.82296391223986 0.00000000000000 0.00000000000000
 0.00000000000000 2.82296391223986 0.00000000000000
 0.00000000000000 0.00000000000000 2.82296391223986
>>>>>>> e84099c (Update new central volumes and add script for consistency checks)
PRIMCOORD
 1 1
 91     0.00000000000000     0.00000000000000     0.00000000000000
