CRYSTAL
PRIMVEC
<<<<<<< HEAD
 -1.95625241483884 1.95625241483884 1.95625241483884
 1.95625241483884 -1.95625241483884 1.95625241483884
 1.95625241483884 1.95625241483884 -1.95625241483884
=======
 -1.95625241132328 1.95625241132328 1.95625241132328
 1.95625241132328 -1.95625241132328 1.95625241132328
 1.95625241132328 1.95625241132328 -1.95625241132328
>>>>>>> 7cc294e (Central volumes for PBE Z=97-103, and PBEsol and LDA for Z=1-103)
PRIMCOORD
 1 1
 82     0.00000000000000     0.00000000000000     0.00000000000000
