CRYSTAL
PRIMVEC
<<<<<<< HEAD
<<<<<<< HEAD
 0.00000000000000 3.45663748430459 3.45663748430459
 3.45663748430459 0.00000000000000 3.45663748430459
 3.45663748430459 3.45663748430459 0.00000000000000
PRIMCOORD
 2 1
 82     0.00000000000000     0.00000000000000     0.00000000000000
 82     1.72831874215229     1.72831874215229     1.72831874215229
=======
 0.00000000000000 3.45663748133959 3.45663748133959
 3.45663748133959 0.00000000000000 3.45663748133959
 3.45663748133959 3.45663748133959 0.00000000000000
PRIMCOORD
 2 1
 82     0.00000000000000     0.00000000000000     0.00000000000000
 82     1.72831874066979     1.72831874066979     1.72831874066979
>>>>>>> 7cc294e (Central volumes for PBE Z=97-103, and PBEsol and LDA for Z=1-103)
=======
 0.00000000000000 3.45663748430459 3.45663748430459
 3.45663748430459 0.00000000000000 3.45663748430459
 3.45663748430459 3.45663748430459 0.00000000000000
PRIMCOORD
 2 1
 82     0.00000000000000     0.00000000000000     0.00000000000000
 82     1.72831874215229     1.72831874215229     1.72831874215229
>>>>>>> e84099c (Update new central volumes and add script for consistency checks)
