CRYSTAL
PRIMVEC
<<<<<<< HEAD
<<<<<<< HEAD
 0.00000000000000 2.46747153321499 2.46747153321499
 2.46747153321499 0.00000000000000 2.46747153321499
 2.46747153321499 2.46747153321499 0.00000000000000
=======
 0.00000000000000 2.46747152051698 2.46747152051698
 2.46747152051698 0.00000000000000 2.46747152051698
 2.46747152051698 2.46747152051698 0.00000000000000
>>>>>>> 7cc294e (Central volumes for PBE Z=97-103, and PBEsol and LDA for Z=1-103)
=======
 0.00000000000000 2.46747153321499 2.46747153321499
 2.46747153321499 0.00000000000000 2.46747153321499
 2.46747153321499 2.46747153321499 0.00000000000000
>>>>>>> e84099c (Update new central volumes and add script for consistency checks)
PRIMCOORD
 1 1
 82     0.00000000000000     0.00000000000000     0.00000000000000
