CRYSTAL
PRIMVEC
<<<<<<< HEAD
 3.18422660918140 0.00000000000000 0.00000000000000
 0.00000000000000 3.18422660918140 0.00000000000000
 0.00000000000000 0.00000000000000 3.18422660918140
=======
 3.18422657154796 0.00000000000000 0.00000000000000
 0.00000000000000 3.18422657154796 0.00000000000000
 0.00000000000000 0.00000000000000 3.18422657154796
>>>>>>> 7cc294e (Central volumes for PBE Z=97-103, and PBEsol and LDA for Z=1-103)
PRIMCOORD
 1 1
 82     0.00000000000000     0.00000000000000     0.00000000000000
