CRYSTAL
PRIMVEC
<<<<<<< HEAD
 -1.54207417479159 1.54207417479159 1.54207417479159
 1.54207417479159 -1.54207417479159 1.54207417479159
 1.54207417479159 1.54207417479159 -1.54207417479159
=======
 -1.54207417356143 1.54207417356143 1.54207417356143
 1.54207417356143 -1.54207417356143 1.54207417356143
 1.54207417356143 1.54207417356143 -1.54207417356143
>>>>>>> 7cc294e (Central volumes for PBE Z=97-103, and PBEsol and LDA for Z=1-103)
PRIMCOORD
 1 1
 46     0.00000000000000     0.00000000000000     0.00000000000000
