CRYSTAL
PRIMVEC
<<<<<<< HEAD
 0.00000000000000 2.84291067770769 2.84291067770769
 2.84291067770769 0.00000000000000 2.84291067770769
 2.84291067770769 2.84291067770769 0.00000000000000
PRIMCOORD
 2 1
 46     0.00000000000000     0.00000000000000     0.00000000000000
 46     1.42145533885385     1.42145533885385     1.42145533885385
=======
 0.00000000000000 2.84291067679254 2.84291067679254
 2.84291067679254 0.00000000000000 2.84291067679254
 2.84291067679254 2.84291067679254 0.00000000000000
PRIMCOORD
 2 1
 46     0.00000000000000     0.00000000000000     0.00000000000000
 46     1.42145533839627     1.42145533839627     1.42145533839627
>>>>>>> 7cc294e (Central volumes for PBE Z=97-103, and PBEsol and LDA for Z=1-103)
