CRYSTAL
PRIMVEC
<<<<<<< HEAD
<<<<<<< HEAD
 2.56579780577383 0.00000000000000 0.00000000000000
 0.00000000000000 2.56579780577383 0.00000000000000
 0.00000000000000 0.00000000000000 2.56579780577383
=======
 2.56579780240989 0.00000000000000 0.00000000000000
 0.00000000000000 2.56579780240989 0.00000000000000
 0.00000000000000 0.00000000000000 2.56579780240989
>>>>>>> 7cc294e (Central volumes for PBE Z=97-103, and PBEsol and LDA for Z=1-103)
=======
 2.56579780577383 0.00000000000000 0.00000000000000
 0.00000000000000 2.56579780577383 0.00000000000000
 0.00000000000000 0.00000000000000 2.56579780577383
>>>>>>> e84099c (Update new central volumes and add script for consistency checks)
PRIMCOORD
 1 1
 46     0.00000000000000     0.00000000000000     0.00000000000000
