CRYSTAL
PRIMVEC
<<<<<<< HEAD
<<<<<<< HEAD
 -1.63065974040333 1.63065974040333 1.63065974040333
 1.63065974040333 -1.63065974040333 1.63065974040333
 1.63065974040333 1.63065974040333 -1.63065974040333
=======
 -1.63065973233797 1.63065973233797 1.63065973233797
 1.63065973233797 -1.63065973233797 1.63065973233797
 1.63065973233797 1.63065973233797 -1.63065973233797
>>>>>>> 7cc294e (Central volumes for PBE Z=97-103, and PBEsol and LDA for Z=1-103)
=======
 -1.63065974040333 1.63065974040333 1.63065974040333
 1.63065974040333 -1.63065974040333 1.63065974040333
 1.63065974040333 1.63065974040333 -1.63065974040333
>>>>>>> e84099c (Update new central volumes and add script for consistency checks)
PRIMCOORD
 1 1
 61     0.00000000000000     0.00000000000000     0.00000000000000
