CRYSTAL
PRIMVEC
<<<<<<< HEAD
<<<<<<< HEAD
 0.00000000000000 2.74193532516659 2.74193532516659
 2.74193532516659 0.00000000000000 2.74193532516659
 2.74193532516659 2.74193532516659 0.00000000000000
PRIMCOORD
 2 1
 61     0.00000000000000     0.00000000000000     0.00000000000000
 61     1.37096766258329     1.37096766258329     1.37096766258329
=======
 0.00000000000000 2.74193532089324 2.74193532089324
 2.74193532089324 0.00000000000000 2.74193532089324
 2.74193532089324 2.74193532089324 0.00000000000000
PRIMCOORD
 2 1
 61     0.00000000000000     0.00000000000000     0.00000000000000
 61     1.37096766044662     1.37096766044662     1.37096766044662
>>>>>>> 7cc294e (Central volumes for PBE Z=97-103, and PBEsol and LDA for Z=1-103)
=======
 0.00000000000000 2.74193532516659 2.74193532516659
 2.74193532516659 0.00000000000000 2.74193532516659
 2.74193532516659 2.74193532516659 0.00000000000000
PRIMCOORD
 2 1
 61     0.00000000000000     0.00000000000000     0.00000000000000
 61     1.37096766258329     1.37096766258329     1.37096766258329
>>>>>>> e84099c (Update new central volumes and add script for consistency checks)
