CRYSTAL
PRIMVEC
<<<<<<< HEAD
 2.52843606676208 0.00000000000000 0.00000000000000
 0.00000000000000 2.52843606676208 0.00000000000000
 0.00000000000000 0.00000000000000 2.52843606676208
=======
 2.52843606273530 0.00000000000000 0.00000000000000
 0.00000000000000 2.52843606273530 0.00000000000000
 0.00000000000000 0.00000000000000 2.52843606273530
>>>>>>> 7cc294e (Central volumes for PBE Z=97-103, and PBEsol and LDA for Z=1-103)
PRIMCOORD
 1 1
 61     0.00000000000000     0.00000000000000     0.00000000000000
