CRYSTAL
PRIMVEC
<<<<<<< HEAD
<<<<<<< HEAD
 -1.98222083651996 1.98222083651996 1.98222083651996
 1.98222083651996 -1.98222083651996 1.98222083651996
 1.98222083651996 1.98222083651996 -1.98222083651996
=======
 -1.98222078096022 1.98222078096022 1.98222078096022
 1.98222078096022 -1.98222078096022 1.98222078096022
 1.98222078096022 1.98222078096022 -1.98222078096022
>>>>>>> 7cc294e (Central volumes for PBE Z=97-103, and PBEsol and LDA for Z=1-103)
=======
 -1.98222083651996 1.98222083651996 1.98222083651996
 1.98222083651996 -1.98222083651996 1.98222083651996
 1.98222083651996 1.98222083651996 -1.98222083651996
>>>>>>> e84099c (Update new central volumes and add script for consistency checks)
PRIMCOORD
 1 1
 84     0.00000000000000     0.00000000000000     0.00000000000000
