CRYSTAL
PRIMVEC
<<<<<<< HEAD
 0.00000000000000 3.68082166309917 3.68082166309917
 3.68082166309917 0.00000000000000 3.68082166309917
 3.68082166309917 3.68082166309917 0.00000000000000
PRIMCOORD
 2 1
 84     0.00000000000000     0.00000000000000     0.00000000000000
 84     1.84041083154959     1.84041083154959     1.84041083154959
=======
 0.00000000000000 3.68082163739896 3.68082163739896
 3.68082163739896 0.00000000000000 3.68082163739896
 3.68082163739896 3.68082163739896 0.00000000000000
PRIMCOORD
 2 1
 84     0.00000000000000     0.00000000000000     0.00000000000000
 84     1.84041081869948     1.84041081869948     1.84041081869948
>>>>>>> 7cc294e (Central volumes for PBE Z=97-103, and PBEsol and LDA for Z=1-103)
