CRYSTAL
PRIMVEC
<<<<<<< HEAD
 0.00000000000000 2.48944949614254 2.48944949614254
 2.48944949614254 0.00000000000000 2.48944949614254
 2.48944949614254 2.48944949614254 0.00000000000000
=======
 0.00000000000000 2.48944948903648 2.48944948903648
 2.48944948903648 0.00000000000000 2.48944948903648
 2.48944948903648 2.48944948903648 0.00000000000000
>>>>>>> 7cc294e (Central volumes for PBE Z=97-103, and PBEsol and LDA for Z=1-103)
PRIMCOORD
 1 1
 84     0.00000000000000     0.00000000000000     0.00000000000000
