CRYSTAL
PRIMVEC
<<<<<<< HEAD
 3.29696325781139 0.00000000000000 0.00000000000000
 0.00000000000000 3.29696325781139 0.00000000000000
 0.00000000000000 0.00000000000000 3.29696325781139
=======
 3.29696324967929 0.00000000000000 0.00000000000000
 0.00000000000000 3.29696324967929 0.00000000000000
 0.00000000000000 0.00000000000000 3.29696324967929
>>>>>>> 7cc294e (Central volumes for PBE Z=97-103, and PBEsol and LDA for Z=1-103)
PRIMCOORD
 1 1
 84     0.00000000000000     0.00000000000000     0.00000000000000
