CRYSTAL
PRIMVEC
<<<<<<< HEAD
<<<<<<< HEAD
 -1.71744074245098 1.71744074245098 1.71744074245098
 1.71744074245098 -1.71744074245098 1.71744074245098
 1.71744074245098 1.71744074245098 -1.71744074245098
=======
 -1.71744074090723 1.71744074090723 1.71744074090723
 1.71744074090723 -1.71744074090723 1.71744074090723
 1.71744074090723 1.71744074090723 -1.71744074090723
>>>>>>> 7cc294e (Central volumes for PBE Z=97-103, and PBEsol and LDA for Z=1-103)
=======
 -1.71744074245098 1.71744074245098 1.71744074245098
 1.71744074245098 -1.71744074245098 1.71744074245098
 1.71744074245098 1.71744074245098 -1.71744074245098
>>>>>>> e84099c (Update new central volumes and add script for consistency checks)
PRIMCOORD
 1 1
 59     0.00000000000000     0.00000000000000     0.00000000000000
