CRYSTAL
PRIMVEC
<<<<<<< HEAD
<<<<<<< HEAD
 0.00000000000000 2.92604814945795 2.92604814945795
 2.92604814945795 0.00000000000000 2.92604814945795
 2.92604814945795 2.92604814945795 0.00000000000000
PRIMCOORD
 2 1
 59     0.00000000000000     0.00000000000000     0.00000000000000
 59     1.46302407472897     1.46302407472897     1.46302407472897
=======
 0.00000000000000 2.92604814852775 2.92604814852775
 2.92604814852775 0.00000000000000 2.92604814852775
 2.92604814852775 2.92604814852775 0.00000000000000
PRIMCOORD
 2 1
 59     0.00000000000000     0.00000000000000     0.00000000000000
 59     1.46302407426388     1.46302407426388     1.46302407426388
>>>>>>> 7cc294e (Central volumes for PBE Z=97-103, and PBEsol and LDA for Z=1-103)
=======
 0.00000000000000 2.92604814945795 2.92604814945795
 2.92604814945795 0.00000000000000 2.92604814945795
 2.92604814945795 2.92604814945795 0.00000000000000
PRIMCOORD
 2 1
 59     0.00000000000000     0.00000000000000     0.00000000000000
 59     1.46302407472897     1.46302407472897     1.46302407472897
>>>>>>> e84099c (Update new central volumes and add script for consistency checks)
