CRYSTAL
PRIMVEC
<<<<<<< HEAD
 0.00000000000000 2.21064922400450 2.21064922400450
 2.21064922400450 0.00000000000000 2.21064922400450
 2.21064922400450 2.21064922400450 0.00000000000000
=======
 0.00000000000000 2.21064921729801 2.21064921729801
 2.21064921729801 0.00000000000000 2.21064921729801
 2.21064921729801 2.21064921729801 0.00000000000000
>>>>>>> 7cc294e (Central volumes for PBE Z=97-103, and PBEsol and LDA for Z=1-103)
PRIMCOORD
 1 1
 59     0.00000000000000     0.00000000000000     0.00000000000000
