CRYSTAL
PRIMVEC
<<<<<<< HEAD
 2.66105936142868 0.00000000000000 0.00000000000000
 0.00000000000000 2.66105936142868 0.00000000000000
 0.00000000000000 0.00000000000000 2.66105936142868
=======
 2.66105929512293 0.00000000000000 0.00000000000000
 0.00000000000000 2.66105929512293 0.00000000000000
 0.00000000000000 0.00000000000000 2.66105929512293
>>>>>>> 7cc294e (Central volumes for PBE Z=97-103, and PBEsol and LDA for Z=1-103)
PRIMCOORD
 1 1
 59     0.00000000000000     0.00000000000000     0.00000000000000
