CRYSTAL
PRIMVEC
<<<<<<< HEAD
 -1.56102812827509 1.56102812827509 1.56102812827509
 1.56102812827509 -1.56102812827509 1.56102812827509
 1.56102812827509 1.56102812827509 -1.56102812827509
=======
 -1.56102812744203 1.56102812744203 1.56102812744203
 1.56102812744203 -1.56102812744203 1.56102812744203
 1.56102812744203 1.56102812744203 -1.56102812744203
>>>>>>> 7cc294e (Central volumes for PBE Z=97-103, and PBEsol and LDA for Z=1-103)
PRIMCOORD
 1 1
 78     0.00000000000000     0.00000000000000     0.00000000000000
