CRYSTAL
PRIMVEC
<<<<<<< HEAD
 0.00000000000000 2.84528586522460 2.84528586522460
 2.84528586522460 0.00000000000000 2.84528586522460
 2.84528586522460 2.84528586522460 0.00000000000000
PRIMCOORD
 2 1
 78     0.00000000000000     0.00000000000000     0.00000000000000
 78     1.42264293261230     1.42264293261230     1.42264293261230
=======
 0.00000000000000 2.84528586132722 2.84528586132722
 2.84528586132722 0.00000000000000 2.84528586132722
 2.84528586132722 2.84528586132722 0.00000000000000
PRIMCOORD
 2 1
 78     0.00000000000000     0.00000000000000     0.00000000000000
 78     1.42264293066361     1.42264293066361     1.42264293066361
>>>>>>> 7cc294e (Central volumes for PBE Z=97-103, and PBEsol and LDA for Z=1-103)
