CRYSTAL
PRIMVEC
<<<<<<< HEAD
 2.58765485688777 0.00000000000000 0.00000000000000
 0.00000000000000 2.58765485688777 0.00000000000000
 0.00000000000000 0.00000000000000 2.58765485688777
=======
 2.58765485488636 0.00000000000000 0.00000000000000
 0.00000000000000 2.58765485488636 0.00000000000000
 0.00000000000000 0.00000000000000 2.58765485488636
>>>>>>> 7cc294e (Central volumes for PBE Z=97-103, and PBEsol and LDA for Z=1-103)
PRIMCOORD
 1 1
 78     0.00000000000000     0.00000000000000     0.00000000000000
