CRYSTAL
PRIMVEC
<<<<<<< HEAD
 -1.57821931777166 1.57821931777166 1.57821931777166
 1.57821931777166 -1.57821931777166 1.57821931777166
 1.57821931777166 1.57821931777166 -1.57821931777166
=======
 -1.57821931177851 1.57821931177851 1.57821931177851
 1.57821931177851 -1.57821931177851 1.57821931177851
 1.57821931177851 1.57821931177851 -1.57821931177851
>>>>>>> 7cc294e (Central volumes for PBE Z=97-103, and PBEsol and LDA for Z=1-103)
PRIMCOORD
 1 1
 94     0.00000000000000     0.00000000000000     0.00000000000000
