CRYSTAL
PRIMVEC
<<<<<<< HEAD
<<<<<<< HEAD
 0.00000000000000 2.68977919628533 2.68977919628533
 2.68977919628533 0.00000000000000 2.68977919628533
 2.68977919628533 2.68977919628533 0.00000000000000
PRIMCOORD
 2 1
 94     0.00000000000000     0.00000000000000     0.00000000000000
 94     1.34488959814267     1.34488959814267     1.34488959814267
=======
 0.00000000000000 2.68977911700822 2.68977911700822
 2.68977911700822 0.00000000000000 2.68977911700822
 2.68977911700822 2.68977911700822 0.00000000000000
PRIMCOORD
 2 1
 94     0.00000000000000     0.00000000000000     0.00000000000000
 94     1.34488955850411     1.34488955850411     1.34488955850411
>>>>>>> 7cc294e (Central volumes for PBE Z=97-103, and PBEsol and LDA for Z=1-103)
=======
 0.00000000000000 2.68977919628533 2.68977919628533
 2.68977919628533 0.00000000000000 2.68977919628533
 2.68977919628533 2.68977919628533 0.00000000000000
PRIMCOORD
 2 1
 94     0.00000000000000     0.00000000000000     0.00000000000000
 94     1.34488959814267     1.34488959814267     1.34488959814267
>>>>>>> e84099c (Update new central volumes and add script for consistency checks)
