CRYSTAL
PRIMVEC
<<<<<<< HEAD
<<<<<<< HEAD
 0.00000000000000 2.03185194817566 2.03185194817566
 2.03185194817566 0.00000000000000 2.03185194817566
 2.03185194817566 2.03185194817566 0.00000000000000
=======
 0.00000000000000 2.03185193436872 2.03185193436872
 2.03185193436872 0.00000000000000 2.03185193436872
 2.03185193436872 2.03185193436872 0.00000000000000
>>>>>>> 7cc294e (Central volumes for PBE Z=97-103, and PBEsol and LDA for Z=1-103)
=======
 0.00000000000000 2.03185194817566 2.03185194817566
 2.03185194817566 0.00000000000000 2.03185194817566
 2.03185194817566 2.03185194817566 0.00000000000000
>>>>>>> e84099c (Update new central volumes and add script for consistency checks)
PRIMCOORD
 1 1
 94     0.00000000000000     0.00000000000000     0.00000000000000
