CRYSTAL
PRIMVEC
<<<<<<< HEAD
<<<<<<< HEAD
 2.49952221525312 0.00000000000000 0.00000000000000
 0.00000000000000 2.49952221525312 0.00000000000000
 0.00000000000000 0.00000000000000 2.49952221525312
=======
 2.49952218902118 0.00000000000000 0.00000000000000
 0.00000000000000 2.49952218902118 0.00000000000000
 0.00000000000000 0.00000000000000 2.49952218902118
>>>>>>> 7cc294e (Central volumes for PBE Z=97-103, and PBEsol and LDA for Z=1-103)
=======
 2.49952221525312 0.00000000000000 0.00000000000000
 0.00000000000000 2.49952221525312 0.00000000000000
 0.00000000000000 0.00000000000000 2.49952221525312
>>>>>>> e84099c (Update new central volumes and add script for consistency checks)
PRIMCOORD
 1 1
 94     0.00000000000000     0.00000000000000     0.00000000000000
