CRYSTAL
PRIMVEC
<<<<<<< HEAD
 -2.53022235602919 2.53022235602919 2.53022235602919
 2.53022235602919 -2.53022235602919 2.53022235602919
 2.53022235602919 2.53022235602919 -2.53022235602919
=======
 -2.53022230975464 2.53022230975464 2.53022230975464
 2.53022230975464 -2.53022230975464 2.53022230975464
 2.53022230975464 2.53022230975464 -2.53022230975464
>>>>>>> 7cc294e (Central volumes for PBE Z=97-103, and PBEsol and LDA for Z=1-103)
PRIMCOORD
 1 1
 88     0.00000000000000     0.00000000000000     0.00000000000000
