CRYSTAL
PRIMVEC
<<<<<<< HEAD
 0.00000000000000 5.29248949928174 5.29248949928174
 5.29248949928174 0.00000000000000 5.29248949928174
 5.29248949928174 5.29248949928174 0.00000000000000
PRIMCOORD
 2 1
 88     0.00000000000000     0.00000000000000     0.00000000000000
 88     2.64624474964087     2.64624474964087     2.64624474964087
=======
 0.00000000000000 5.29248917938849 5.29248917938849
 5.29248917938849 0.00000000000000 5.29248917938849
 5.29248917938849 5.29248917938849 0.00000000000000
PRIMCOORD
 2 1
 88     0.00000000000000     0.00000000000000     0.00000000000000
 88     2.64624458969425     2.64624458969425     2.64624458969425
>>>>>>> 7cc294e (Central volumes for PBE Z=97-103, and PBEsol and LDA for Z=1-103)
