CRYSTAL
PRIMVEC
<<<<<<< HEAD
 0.00000000000000 3.19246201032204 3.19246201032204
 3.19246201032204 0.00000000000000 3.19246201032204
 3.19246201032204 3.19246201032204 0.00000000000000
=======
 0.00000000000000 3.19246195905208 3.19246195905208
 3.19246195905208 0.00000000000000 3.19246195905208
 3.19246195905208 3.19246195905208 0.00000000000000
>>>>>>> 7cc294e (Central volumes for PBE Z=97-103, and PBEsol and LDA for Z=1-103)
PRIMCOORD
 1 1
 88     0.00000000000000     0.00000000000000     0.00000000000000
