CRYSTAL
PRIMVEC
<<<<<<< HEAD
 4.07286209867881 0.00000000000000 0.00000000000000
 0.00000000000000 4.07286209867881 0.00000000000000
 0.00000000000000 0.00000000000000 4.07286209867881
=======
 4.07286197451046 0.00000000000000 0.00000000000000
 0.00000000000000 4.07286197451046 0.00000000000000
 0.00000000000000 0.00000000000000 4.07286197451046
>>>>>>> 7cc294e (Central volumes for PBE Z=97-103, and PBEsol and LDA for Z=1-103)
PRIMCOORD
 1 1
 88     0.00000000000000     0.00000000000000     0.00000000000000
