CRYSTAL
PRIMVEC
<<<<<<< HEAD
 -2.78440006739642 2.78440006739642 2.78440006739642
 2.78440006739642 -2.78440006739642 2.78440006739642
 2.78440006739642 2.78440006739642 -2.78440006739642
=======
 -2.78440006117889 2.78440006117889 2.78440006117889
 2.78440006117889 -2.78440006117889 2.78440006117889
 2.78440006117889 2.78440006117889 -2.78440006117889
>>>>>>> 7cc294e (Central volumes for PBE Z=97-103, and PBEsol and LDA for Z=1-103)
PRIMCOORD
 1 1
 37     0.00000000000000     0.00000000000000     0.00000000000000
