CRYSTAL
PRIMVEC
<<<<<<< HEAD
<<<<<<< HEAD
 0.00000000000000 5.07715761126529 5.07715761126529
 5.07715761126529 0.00000000000000 5.07715761126529
 5.07715761126529 5.07715761126529 0.00000000000000
PRIMCOORD
 2 1
 37     0.00000000000000     0.00000000000000     0.00000000000000
 37     2.53857880563265     2.53857880563265     2.53857880563265
=======
 0.00000000000000 5.07715757801959 5.07715757801959
 5.07715757801959 0.00000000000000 5.07715757801959
 5.07715757801959 5.07715757801959 0.00000000000000
PRIMCOORD
 2 1
 37     0.00000000000000     0.00000000000000     0.00000000000000
 37     2.53857878900980     2.53857878900980     2.53857878900980
>>>>>>> 7cc294e (Central volumes for PBE Z=97-103, and PBEsol and LDA for Z=1-103)
=======
 0.00000000000000 5.07715761126529 5.07715761126529
 5.07715761126529 0.00000000000000 5.07715761126529
 5.07715761126529 5.07715761126529 0.00000000000000
PRIMCOORD
 2 1
 37     0.00000000000000     0.00000000000000     0.00000000000000
 37     2.53857880563265     2.53857880563265     2.53857880563265
>>>>>>> e84099c (Update new central volumes and add script for consistency checks)
