CRYSTAL
PRIMVEC
<<<<<<< HEAD
 0.00000000000000 3.51146081445410 3.51146081445410
 3.51146081445410 0.00000000000000 3.51146081445410
 3.51146081445410 3.51146081445410 0.00000000000000
=======
 0.00000000000000 3.51146078859618 3.51146078859618
 3.51146078859618 0.00000000000000 3.51146078859618
 3.51146078859618 3.51146078859618 0.00000000000000
>>>>>>> 7cc294e (Central volumes for PBE Z=97-103, and PBEsol and LDA for Z=1-103)
PRIMCOORD
 1 1
 37     0.00000000000000     0.00000000000000     0.00000000000000
