CRYSTAL
PRIMVEC
<<<<<<< HEAD
 4.53686276554225 0.00000000000000 0.00000000000000
 0.00000000000000 4.53686276554225 0.00000000000000
 0.00000000000000 0.00000000000000 4.53686276554225
=======
 4.53686275728489 0.00000000000000 0.00000000000000
 0.00000000000000 4.53686275728489 0.00000000000000
 0.00000000000000 0.00000000000000 4.53686275728489
>>>>>>> 7cc294e (Central volumes for PBE Z=97-103, and PBEsol and LDA for Z=1-103)
PRIMCOORD
 1 1
 37     0.00000000000000     0.00000000000000     0.00000000000000
