CRYSTAL
PRIMVEC
<<<<<<< HEAD
<<<<<<< HEAD
 -1.54309478346389 1.54309478346389 1.54309478346389
 1.54309478346389 -1.54309478346389 1.54309478346389
 1.54309478346389 1.54309478346389 -1.54309478346389
=======
 -1.54309477059334 1.54309477059334 1.54309477059334
 1.54309477059334 -1.54309477059334 1.54309477059334
 1.54309477059334 1.54309477059334 -1.54309477059334
>>>>>>> 7cc294e (Central volumes for PBE Z=97-103, and PBEsol and LDA for Z=1-103)
=======
 -1.54309478346389 1.54309478346389 1.54309478346389
 1.54309478346389 -1.54309478346389 1.54309478346389
 1.54309478346389 1.54309478346389 -1.54309478346389
>>>>>>> e84099c (Update new central volumes and add script for consistency checks)
PRIMCOORD
 1 1
 75     0.00000000000000     0.00000000000000     0.00000000000000
