CRYSTAL
PRIMVEC
<<<<<<< HEAD
<<<<<<< HEAD
 0.00000000000000 2.79731195227780 2.79731195227780
 2.79731195227780 0.00000000000000 2.79731195227780
 2.79731195227780 2.79731195227780 0.00000000000000
PRIMCOORD
 2 1
 75     0.00000000000000     0.00000000000000     0.00000000000000
 75     1.39865597613890     1.39865597613890     1.39865597613890
=======
 0.00000000000000 2.79731195029894 2.79731195029894
 2.79731195029894 0.00000000000000 2.79731195029894
 2.79731195029894 2.79731195029894 0.00000000000000
PRIMCOORD
 2 1
 75     0.00000000000000     0.00000000000000     0.00000000000000
 75     1.39865597514947     1.39865597514947     1.39865597514947
>>>>>>> 7cc294e (Central volumes for PBE Z=97-103, and PBEsol and LDA for Z=1-103)
=======
 0.00000000000000 2.79731195227780 2.79731195227780
 2.79731195227780 0.00000000000000 2.79731195227780
 2.79731195227780 2.79731195227780 0.00000000000000
PRIMCOORD
 2 1
 75     0.00000000000000     0.00000000000000     0.00000000000000
 75     1.39865597613890     1.39865597613890     1.39865597613890
>>>>>>> e84099c (Update new central volumes and add script for consistency checks)
