CRYSTAL
PRIMVEC
<<<<<<< HEAD
 0.00000000000000 1.94060618361212 1.94060618361212
 1.94060618361212 0.00000000000000 1.94060618361212
 1.94060618361212 1.94060618361212 0.00000000000000
=======
 0.00000000000000 1.94060617560572 1.94060617560572
 1.94060617560572 0.00000000000000 1.94060617560572
 1.94060617560572 1.94060617560572 0.00000000000000
>>>>>>> 7cc294e (Central volumes for PBE Z=97-103, and PBEsol and LDA for Z=1-103)
PRIMCOORD
 1 1
 75     0.00000000000000     0.00000000000000     0.00000000000000
