CRYSTAL
PRIMVEC
<<<<<<< HEAD
 2.55304372400871 0.00000000000000 0.00000000000000
 0.00000000000000 2.55304372400871 0.00000000000000
 0.00000000000000 0.00000000000000 2.55304372400871
=======
 2.55304371734816 0.00000000000000 0.00000000000000
 0.00000000000000 2.55304371734816 0.00000000000000
 0.00000000000000 0.00000000000000 2.55304371734816
>>>>>>> 7cc294e (Central volumes for PBE Z=97-103, and PBEsol and LDA for Z=1-103)
PRIMCOORD
 1 1
 75     0.00000000000000     0.00000000000000     0.00000000000000
