CRYSTAL
PRIMVEC
<<<<<<< HEAD
 0.00000000000000 2.71679142343665 2.71679142343665
 2.71679142343665 0.00000000000000 2.71679142343665
 2.71679142343665 2.71679142343665 0.00000000000000
PRIMCOORD
 2 1
 45     0.00000000000000     0.00000000000000     0.00000000000000
 45     1.35839571171833     1.35839571171833     1.35839571171833
=======
 0.00000000000000 2.71679141738343 2.71679141738343
 2.71679141738343 0.00000000000000 2.71679141738343
 2.71679141738343 2.71679141738343 0.00000000000000
PRIMCOORD
 2 1
 45     0.00000000000000     0.00000000000000     0.00000000000000
 45     1.35839570869172     1.35839570869172     1.35839570869172
>>>>>>> 7cc294e (Central volumes for PBE Z=97-103, and PBEsol and LDA for Z=1-103)
