CRYSTAL
PRIMVEC
<<<<<<< HEAD
 0.00000000000000 1.89028229807030 1.89028229807030
 1.89028229807030 0.00000000000000 1.89028229807030
 1.89028229807030 1.89028229807030 0.00000000000000
=======
 0.00000000000000 1.89028229606615 1.89028229606615
 1.89028229606615 0.00000000000000 1.89028229606615
 1.89028229606615 1.89028229606615 0.00000000000000
>>>>>>> 7cc294e (Central volumes for PBE Z=97-103, and PBEsol and LDA for Z=1-103)
PRIMCOORD
 1 1
 45     0.00000000000000     0.00000000000000     0.00000000000000
