CRYSTAL
PRIMVEC
<<<<<<< HEAD
 2.49942057798035 0.00000000000000 0.00000000000000
 0.00000000000000 2.49942057798035 0.00000000000000
 0.00000000000000 0.00000000000000 2.49942057798035
=======
 2.49942057105471 0.00000000000000 0.00000000000000
 0.00000000000000 2.49942057105471 0.00000000000000
 0.00000000000000 0.00000000000000 2.49942057105471
>>>>>>> 7cc294e (Central volumes for PBE Z=97-103, and PBEsol and LDA for Z=1-103)
PRIMCOORD
 1 1
 45     0.00000000000000     0.00000000000000     0.00000000000000
