CRYSTAL
PRIMVEC
<<<<<<< HEAD
<<<<<<< HEAD
 -2.60064619785706 2.60064619785706 2.60064619785706
 2.60064619785706 -2.60064619785706 2.60064619785706
 2.60064619785706 2.60064619785706 -2.60064619785706
=======
 -2.60064617816467 2.60064617816467 2.60064617816467
 2.60064617816467 -2.60064617816467 2.60064617816467
 2.60064617816467 2.60064617816467 -2.60064617816467
>>>>>>> 7cc294e (Central volumes for PBE Z=97-103, and PBEsol and LDA for Z=1-103)
=======
 -2.60064619785706 2.60064619785706 2.60064619785706
 2.60064619785706 -2.60064619785706 2.60064619785706
 2.60064619785706 2.60064619785706 -2.60064619785706
>>>>>>> e84099c (Update new central volumes and add script for consistency checks)
PRIMCOORD
 1 1
 86     0.00000000000000     0.00000000000000     0.00000000000000
