CRYSTAL
PRIMVEC
<<<<<<< HEAD
<<<<<<< HEAD
 0.00000000000000 5.24607812732361 5.24607812732361
 5.24607812732361 0.00000000000000 5.24607812732361
 5.24607812732361 5.24607812732361 0.00000000000000
PRIMCOORD
 2 1
 86     0.00000000000000     0.00000000000000     0.00000000000000
 86     2.62303906366181     2.62303906366181     2.62303906366181
=======
 0.00000000000000 5.24607808819968 5.24607808819968
 5.24607808819968 0.00000000000000 5.24607808819968
 5.24607808819968 5.24607808819968 0.00000000000000
PRIMCOORD
 2 1
 86     0.00000000000000     0.00000000000000     0.00000000000000
 86     2.62303904409984     2.62303904409984     2.62303904409984
>>>>>>> 7cc294e (Central volumes for PBE Z=97-103, and PBEsol and LDA for Z=1-103)
=======
 0.00000000000000 5.24607812732361 5.24607812732361
 5.24607812732361 0.00000000000000 5.24607812732361
 5.24607812732361 5.24607812732361 0.00000000000000
PRIMCOORD
 2 1
 86     0.00000000000000     0.00000000000000     0.00000000000000
 86     2.62303906366181     2.62303906366181     2.62303906366181
>>>>>>> e84099c (Update new central volumes and add script for consistency checks)
