CRYSTAL
PRIMVEC
<<<<<<< HEAD
 4.57479842926441 0.00000000000000 0.00000000000000
 0.00000000000000 4.57479842926441 0.00000000000000
 0.00000000000000 0.00000000000000 4.57479842926441
=======
 4.57479838170975 0.00000000000000 0.00000000000000
 0.00000000000000 4.57479838170975 0.00000000000000
 0.00000000000000 0.00000000000000 4.57479838170975
>>>>>>> 7cc294e (Central volumes for PBE Z=97-103, and PBEsol and LDA for Z=1-103)
PRIMCOORD
 1 1
 86     0.00000000000000     0.00000000000000     0.00000000000000
