CRYSTAL
PRIMVEC
<<<<<<< HEAD
<<<<<<< HEAD
 4.57479842926441 0.00000000000000 0.00000000000000
 0.00000000000000 4.57479842926441 0.00000000000000
 0.00000000000000 0.00000000000000 4.57479842926441
=======
 4.57479838170975 0.00000000000000 0.00000000000000
 0.00000000000000 4.57479838170975 0.00000000000000
 0.00000000000000 0.00000000000000 4.57479838170975
>>>>>>> 7cc294e (Central volumes for PBE Z=97-103, and PBEsol and LDA for Z=1-103)
=======
 4.57479842926441 0.00000000000000 0.00000000000000
 0.00000000000000 4.57479842926441 0.00000000000000
 0.00000000000000 0.00000000000000 4.57479842926441
>>>>>>> e84099c (Update new central volumes and add script for consistency checks)
PRIMCOORD
 1 1
 86     0.00000000000000     0.00000000000000     0.00000000000000
