CRYSTAL
PRIMVEC
<<<<<<< HEAD
<<<<<<< HEAD
 -1.50925947828677 1.50925947828677 1.50925947828677
 1.50925947828677 -1.50925947828677 1.50925947828677
 1.50925947828677 1.50925947828677 -1.50925947828677
=======
 -1.50925947564055 1.50925947564055 1.50925947564055
 1.50925947564055 -1.50925947564055 1.50925947564055
 1.50925947564055 1.50925947564055 -1.50925947564055
>>>>>>> 7cc294e (Central volumes for PBE Z=97-103, and PBEsol and LDA for Z=1-103)
=======
 -1.50925947828677 1.50925947828677 1.50925947828677
 1.50925947828677 -1.50925947828677 1.50925947828677
 1.50925947828677 1.50925947828677 -1.50925947828677
>>>>>>> e84099c (Update new central volumes and add script for consistency checks)
PRIMCOORD
 1 1
 44     0.00000000000000     0.00000000000000     0.00000000000000
