CRYSTAL
PRIMVEC
<<<<<<< HEAD
 0.00000000000000 1.88448421768354 1.88448421768354
 1.88448421768354 0.00000000000000 1.88448421768354
 1.88448421768354 1.88448421768354 0.00000000000000
=======
 0.00000000000000 1.88448421616039 1.88448421616039
 1.88448421616039 0.00000000000000 1.88448421616039
 1.88448421616039 1.88448421616039 0.00000000000000
>>>>>>> 7cc294e (Central volumes for PBE Z=97-103, and PBEsol and LDA for Z=1-103)
PRIMCOORD
 1 1
 44     0.00000000000000     0.00000000000000     0.00000000000000
