CRYSTAL
PRIMVEC
<<<<<<< HEAD
 2.48038211698285 0.00000000000000 0.00000000000000
 0.00000000000000 2.48038211698285 0.00000000000000
 0.00000000000000 0.00000000000000 2.48038211698285
=======
 2.48038211253380 0.00000000000000 0.00000000000000
 0.00000000000000 2.48038211253380 0.00000000000000
 0.00000000000000 0.00000000000000 2.48038211253380
>>>>>>> 7cc294e (Central volumes for PBE Z=97-103, and PBEsol and LDA for Z=1-103)
PRIMCOORD
 1 1
 44     0.00000000000000     0.00000000000000     0.00000000000000
