CRYSTAL
PRIMVEC
<<<<<<< HEAD
<<<<<<< HEAD
 -1.54915682885324 1.54915682885324 1.54915682885324
 1.54915682885324 -1.54915682885324 1.54915682885324
 1.54915682885324 1.54915682885324 -1.54915682885324
=======
 -1.54915679389226 1.54915679389226 1.54915679389226
 1.54915679389226 -1.54915679389226 1.54915679389226
 1.54915679389226 1.54915679389226 -1.54915679389226
>>>>>>> 7cc294e (Central volumes for PBE Z=97-103, and PBEsol and LDA for Z=1-103)
=======
 -1.54915682885324 1.54915682885324 1.54915682885324
 1.54915682885324 -1.54915682885324 1.54915682885324
 1.54915682885324 1.54915682885324 -1.54915682885324
>>>>>>> e84099c (Update new central volumes and add script for consistency checks)
PRIMCOORD
 1 1
 16     0.00000000000000     0.00000000000000     0.00000000000000
