CRYSTAL
PRIMVEC
<<<<<<< HEAD
 0.00000000000000 2.84082482574897 2.84082482574897
 2.84082482574897 0.00000000000000 2.84082482574897
 2.84082482574897 2.84082482574897 0.00000000000000
PRIMCOORD
 2 1
 16     0.00000000000000     0.00000000000000     0.00000000000000
 16     1.42041241287448     1.42041241287448     1.42041241287448
=======
 0.00000000000000 2.84082482461788 2.84082482461788
 2.84082482461788 0.00000000000000 2.84082482461788
 2.84082482461788 2.84082482461788 0.00000000000000
PRIMCOORD
 2 1
 16     0.00000000000000     0.00000000000000     0.00000000000000
 16     1.42041241230894     1.42041241230894     1.42041241230894
>>>>>>> 7cc294e (Central volumes for PBE Z=97-103, and PBEsol and LDA for Z=1-103)
