CRYSTAL
PRIMVEC
<<<<<<< HEAD
<<<<<<< HEAD
 0.00000000000000 1.95452168600192 1.95452168600192
 1.95452168600192 0.00000000000000 1.95452168600192
 1.95452168600192 1.95452168600192 0.00000000000000
=======
 0.00000000000000 1.95452168557755 1.95452168557755
 1.95452168557755 0.00000000000000 1.95452168557755
 1.95452168557755 1.95452168557755 0.00000000000000
>>>>>>> 7cc294e (Central volumes for PBE Z=97-103, and PBEsol and LDA for Z=1-103)
=======
 0.00000000000000 1.95452168600192 1.95452168600192
 1.95452168600192 0.00000000000000 1.95452168600192
 1.95452168600192 1.95452168600192 0.00000000000000
>>>>>>> e84099c (Update new central volumes and add script for consistency checks)
PRIMCOORD
 1 1
 16     0.00000000000000     0.00000000000000     0.00000000000000
