CRYSTAL
PRIMVEC
<<<<<<< HEAD
 2.54115327348821 0.00000000000000 0.00000000000000
 0.00000000000000 2.54115327348821 0.00000000000000
 0.00000000000000 0.00000000000000 2.54115327348821
=======
 2.54115324824190 0.00000000000000 0.00000000000000
 0.00000000000000 2.54115324824190 0.00000000000000
 0.00000000000000 0.00000000000000 2.54115324824190
>>>>>>> 7cc294e (Central volumes for PBE Z=97-103, and PBEsol and LDA for Z=1-103)
PRIMCOORD
 1 1
 16     0.00000000000000     0.00000000000000     0.00000000000000
