CRYSTAL
PRIMVEC
<<<<<<< HEAD
<<<<<<< HEAD
 0.00000000000000 3.43590889742103 3.43590889742103
 3.43590889742103 0.00000000000000 3.43590889742103
 3.43590889742103 3.43590889742103 0.00000000000000
PRIMCOORD
 2 1
 51     0.00000000000000     0.00000000000000     0.00000000000000
 51     1.71795444871052     1.71795444871052     1.71795444871052
=======
 0.00000000000000 3.43590887948858 3.43590887948858
 3.43590887948858 0.00000000000000 3.43590887948858
 3.43590887948858 3.43590887948858 0.00000000000000
PRIMCOORD
 2 1
 51     0.00000000000000     0.00000000000000     0.00000000000000
 51     1.71795443974429     1.71795443974429     1.71795443974429
>>>>>>> 7cc294e (Central volumes for PBE Z=97-103, and PBEsol and LDA for Z=1-103)
=======
 0.00000000000000 3.43590889742103 3.43590889742103
 3.43590889742103 0.00000000000000 3.43590889742103
 3.43590889742103 3.43590889742103 0.00000000000000
PRIMCOORD
 2 1
 51     0.00000000000000     0.00000000000000     0.00000000000000
 51     1.71795444871052     1.71795444871052     1.71795444871052
>>>>>>> e84099c (Update new central volumes and add script for consistency checks)
