CRYSTAL
PRIMVEC
<<<<<<< HEAD
<<<<<<< HEAD
 3.06102777580498 0.00000000000000 0.00000000000000
 0.00000000000000 3.06102777580498 0.00000000000000
 0.00000000000000 0.00000000000000 3.06102777580498
=======
 3.06102751762122 0.00000000000000 0.00000000000000
 0.00000000000000 3.06102751762122 0.00000000000000
 0.00000000000000 0.00000000000000 3.06102751762122
>>>>>>> 7cc294e (Central volumes for PBE Z=97-103, and PBEsol and LDA for Z=1-103)
=======
 3.06102777580498 0.00000000000000 0.00000000000000
 0.00000000000000 3.06102777580498 0.00000000000000
 0.00000000000000 0.00000000000000 3.06102777580498
>>>>>>> e84099c (Update new central volumes and add script for consistency checks)
PRIMCOORD
 1 1
 51     0.00000000000000     0.00000000000000     0.00000000000000
