CRYSTAL
PRIMVEC
<<<<<<< HEAD
<<<<<<< HEAD
 0.00000000000000 3.13063533440188 3.13063533440188
 3.13063533440188 0.00000000000000 3.13063533440188
 3.13063533440188 3.13063533440188 0.00000000000000
PRIMCOORD
 2 1
 21     0.00000000000000     0.00000000000000     0.00000000000000
 21     1.56531766720094     1.56531766720094     1.56531766720094
=======
 0.00000000000000 3.13063525874572 3.13063525874572
 3.13063525874572 0.00000000000000 3.13063525874572
 3.13063525874572 3.13063525874572 0.00000000000000
PRIMCOORD
 2 1
 21     0.00000000000000     0.00000000000000     0.00000000000000
 21     1.56531762937286     1.56531762937286     1.56531762937286
>>>>>>> 7cc294e (Central volumes for PBE Z=97-103, and PBEsol and LDA for Z=1-103)
=======
 0.00000000000000 3.13063533440188 3.13063533440188
 3.13063533440188 0.00000000000000 3.13063533440188
 3.13063533440188 3.13063533440188 0.00000000000000
PRIMCOORD
 2 1
 21     0.00000000000000     0.00000000000000     0.00000000000000
 21     1.56531766720094     1.56531766720094     1.56531766720094
>>>>>>> e84099c (Update new central volumes and add script for consistency checks)
