CRYSTAL
PRIMVEC
<<<<<<< HEAD
 0.00000000000000 2.27709340346524 2.27709340346524
 2.27709340346524 0.00000000000000 2.27709340346524
 2.27709340346524 2.27709340346524 0.00000000000000
=======
 0.00000000000000 2.27709340260157 2.27709340260157
 2.27709340260157 0.00000000000000 2.27709340260157
 2.27709340260157 2.27709340260157 0.00000000000000
>>>>>>> 7cc294e (Central volumes for PBE Z=97-103, and PBEsol and LDA for Z=1-103)
PRIMCOORD
 1 1
 21     0.00000000000000     0.00000000000000     0.00000000000000
