CRYSTAL
PRIMVEC
<<<<<<< HEAD
 2.91338596500750 0.00000000000000 0.00000000000000
 0.00000000000000 2.91338596500750 0.00000000000000
 0.00000000000000 0.00000000000000 2.91338596500750
=======
 2.91338596056250 0.00000000000000 0.00000000000000
 0.00000000000000 2.91338596056250 0.00000000000000
 0.00000000000000 0.00000000000000 2.91338596056250
>>>>>>> 7cc294e (Central volumes for PBE Z=97-103, and PBEsol and LDA for Z=1-103)
PRIMCOORD
 1 1
 21     0.00000000000000     0.00000000000000     0.00000000000000
