CRYSTAL
PRIMVEC
<<<<<<< HEAD
<<<<<<< HEAD
 -1.68829910255096 1.68829910255096 1.68829910255096
 1.68829910255096 -1.68829910255096 1.68829910255096
 1.68829910255096 1.68829910255096 -1.68829910255096
=======
 -1.68829909865485 1.68829909865485 1.68829909865485
 1.68829909865485 -1.68829909865485 1.68829909865485
 1.68829909865485 1.68829909865485 -1.68829909865485
>>>>>>> 7cc294e (Central volumes for PBE Z=97-103, and PBEsol and LDA for Z=1-103)
=======
 -1.68829910255096 1.68829910255096 1.68829910255096
 1.68829910255096 -1.68829910255096 1.68829910255096
 1.68829910255096 1.68829910255096 -1.68829910255096
>>>>>>> e84099c (Update new central volumes and add script for consistency checks)
PRIMCOORD
 1 1
 34     0.00000000000000     0.00000000000000     0.00000000000000
