CRYSTAL
PRIMVEC
<<<<<<< HEAD
 0.00000000000000 3.11137242278242 3.11137242278242
 3.11137242278242 0.00000000000000 3.11137242278242
 3.11137242278242 3.11137242278242 0.00000000000000
PRIMCOORD
 2 1
 34     0.00000000000000     0.00000000000000     0.00000000000000
 34     1.55568621139121     1.55568621139121     1.55568621139121
=======
 0.00000000000000 3.11137242182564 3.11137242182564
 3.11137242182564 0.00000000000000 3.11137242182564
 3.11137242182564 3.11137242182564 0.00000000000000
PRIMCOORD
 2 1
 34     0.00000000000000     0.00000000000000     0.00000000000000
 34     1.55568621091282     1.55568621091282     1.55568621091282
>>>>>>> 7cc294e (Central volumes for PBE Z=97-103, and PBEsol and LDA for Z=1-103)
