CRYSTAL
PRIMVEC
<<<<<<< HEAD
 0.00000000000000 2.12643798145964 2.12643798145964
 2.12643798145964 0.00000000000000 2.12643798145964
 2.12643798145964 2.12643798145964 0.00000000000000
=======
 0.00000000000000 2.12643797538295 2.12643797538295
 2.12643797538295 0.00000000000000 2.12643797538295
 2.12643797538295 2.12643797538295 0.00000000000000
>>>>>>> 7cc294e (Central volumes for PBE Z=97-103, and PBEsol and LDA for Z=1-103)
PRIMCOORD
 1 1
 34     0.00000000000000     0.00000000000000     0.00000000000000
