CRYSTAL
PRIMVEC
<<<<<<< HEAD
 2.78611535668454 0.00000000000000 0.00000000000000
 0.00000000000000 2.78611535668454 0.00000000000000
 0.00000000000000 0.00000000000000 2.78611535668454
=======
 2.78611534860327 0.00000000000000 0.00000000000000
 0.00000000000000 2.78611534860327 0.00000000000000
 0.00000000000000 0.00000000000000 2.78611534860327
>>>>>>> 7cc294e (Central volumes for PBE Z=97-103, and PBEsol and LDA for Z=1-103)
PRIMCOORD
 1 1
 34     0.00000000000000     0.00000000000000     0.00000000000000
