CRYSTAL
PRIMVEC
<<<<<<< HEAD
 -1.52801577363566 1.52801577363566 1.52801577363566
 1.52801577363566 -1.52801577363566 1.52801577363566
 1.52801577363566 1.52801577363566 -1.52801577363566
=======
 -1.52801577161809 1.52801577161809 1.52801577161809
 1.52801577161809 -1.52801577161809 1.52801577161809
 1.52801577161809 1.52801577161809 -1.52801577161809
>>>>>>> 7cc294e (Central volumes for PBE Z=97-103, and PBEsol and LDA for Z=1-103)
PRIMCOORD
 1 1
 14     0.00000000000000     0.00000000000000     0.00000000000000
