CRYSTAL
PRIMVEC
<<<<<<< HEAD
 0.00000000000000 2.71640458447908 2.71640458447908
 2.71640458447908 0.00000000000000 2.71640458447908
 2.71640458447908 2.71640458447908 0.00000000000000
PRIMCOORD
 2 1
 14     0.00000000000000     0.00000000000000     0.00000000000000
 14     1.35820229223954     1.35820229223954     1.35820229223954
=======
 0.00000000000000 2.71640457818987 2.71640457818987
 2.71640457818987 0.00000000000000 2.71640457818987
 2.71640457818987 2.71640457818987 0.00000000000000
PRIMCOORD
 2 1
 14     0.00000000000000     0.00000000000000     0.00000000000000
 14     1.35820228909493     1.35820228909493     1.35820228909493
>>>>>>> 7cc294e (Central volumes for PBE Z=97-103, and PBEsol and LDA for Z=1-103)
