CRYSTAL
PRIMVEC
<<<<<<< HEAD
 2.51282551611857 0.00000000000000 0.00000000000000
 0.00000000000000 2.51282551611857 0.00000000000000
 0.00000000000000 0.00000000000000 2.51282551611857
=======
 2.51282550254361 0.00000000000000 0.00000000000000
 0.00000000000000 2.51282550254361 0.00000000000000
 0.00000000000000 0.00000000000000 2.51282550254361
>>>>>>> 7cc294e (Central volumes for PBE Z=97-103, and PBEsol and LDA for Z=1-103)
PRIMCOORD
 1 1
 14     0.00000000000000     0.00000000000000     0.00000000000000
