CRYSTAL
PRIMVEC
<<<<<<< HEAD
<<<<<<< HEAD
 -1.62735880898598 1.62735880898598 1.62735880898598
 1.62735880898598 -1.62735880898598 1.62735880898598
 1.62735880898598 1.62735880898598 -1.62735880898598
=======
 -1.62735878549030 1.62735878549030 1.62735878549030
 1.62735878549030 -1.62735878549030 1.62735878549030
 1.62735878549030 1.62735878549030 -1.62735878549030
>>>>>>> 7cc294e (Central volumes for PBE Z=97-103, and PBEsol and LDA for Z=1-103)
=======
 -1.62735880898598 1.62735880898598 1.62735880898598
 1.62735880898598 -1.62735880898598 1.62735880898598
 1.62735880898598 1.62735880898598 -1.62735880898598
>>>>>>> e84099c (Update new central volumes and add script for consistency checks)
PRIMCOORD
 1 1
 62     0.00000000000000     0.00000000000000     0.00000000000000
