CRYSTAL
PRIMVEC
<<<<<<< HEAD
<<<<<<< HEAD
 0.00000000000000 2.70635270722963 2.70635270722963
 2.70635270722963 0.00000000000000 2.70635270722963
 2.70635270722963 2.70635270722963 0.00000000000000
PRIMCOORD
 2 1
 62     0.00000000000000     0.00000000000000     0.00000000000000
 62     1.35317635361482     1.35317635361482     1.35317635361482
=======
 0.00000000000000 2.70635268718954 2.70635268718954
 2.70635268718954 0.00000000000000 2.70635268718954
 2.70635268718954 2.70635268718954 0.00000000000000
PRIMCOORD
 2 1
 62     0.00000000000000     0.00000000000000     0.00000000000000
 62     1.35317634359477     1.35317634359477     1.35317634359477
>>>>>>> 7cc294e (Central volumes for PBE Z=97-103, and PBEsol and LDA for Z=1-103)
=======
 0.00000000000000 2.70635270722963 2.70635270722963
 2.70635270722963 0.00000000000000 2.70635270722963
 2.70635270722963 2.70635270722963 0.00000000000000
PRIMCOORD
 2 1
 62     0.00000000000000     0.00000000000000     0.00000000000000
 62     1.35317635361482     1.35317635361482     1.35317635361482
>>>>>>> e84099c (Update new central volumes and add script for consistency checks)
