CRYSTAL
PRIMVEC
<<<<<<< HEAD
 0.00000000000000 2.12998368207722 2.12998368207722
 2.12998368207722 0.00000000000000 2.12998368207722
 2.12998368207722 2.12998368207722 0.00000000000000
=======
 0.00000000000000 2.12998365216577 2.12998365216577
 2.12998365216577 0.00000000000000 2.12998365216577
 2.12998365216577 2.12998365216577 0.00000000000000
>>>>>>> 7cc294e (Central volumes for PBE Z=97-103, and PBEsol and LDA for Z=1-103)
PRIMCOORD
 1 1
 62     0.00000000000000     0.00000000000000     0.00000000000000
