CRYSTAL
PRIMVEC
<<<<<<< HEAD
 2.51393467461462 0.00000000000000 0.00000000000000
 0.00000000000000 2.51393467461462 0.00000000000000
 0.00000000000000 0.00000000000000 2.51393467461462
=======
 2.51393466842532 0.00000000000000 0.00000000000000
 0.00000000000000 2.51393466842532 0.00000000000000
 0.00000000000000 0.00000000000000 2.51393466842532
>>>>>>> 7cc294e (Central volumes for PBE Z=97-103, and PBEsol and LDA for Z=1-103)
PRIMCOORD
 1 1
 62     0.00000000000000     0.00000000000000     0.00000000000000
