CRYSTAL
PRIMVEC
<<<<<<< HEAD
 -1.86933310315971 1.86933310315971 1.86933310315971
 1.86933310315971 -1.86933310315971 1.86933310315971
 1.86933310315971 1.86933310315971 -1.86933310315971
=======
 -1.86933309515935 1.86933309515935 1.86933309515935
 1.86933309515935 -1.86933309515935 1.86933309515935
 1.86933309515935 1.86933309515935 -1.86933309515935
>>>>>>> 7cc294e (Central volumes for PBE Z=97-103, and PBEsol and LDA for Z=1-103)
PRIMCOORD
 1 1
 50     0.00000000000000     0.00000000000000     0.00000000000000
