CRYSTAL
PRIMVEC
<<<<<<< HEAD
<<<<<<< HEAD
 0.00000000000000 3.27011463897089 3.27011463897089
 3.27011463897089 0.00000000000000 3.27011463897089
 3.27011463897089 3.27011463897089 0.00000000000000
PRIMCOORD
 2 1
 50     0.00000000000000     0.00000000000000     0.00000000000000
 50     1.63505731948544     1.63505731948544     1.63505731948544
=======
 0.00000000000000 3.27011463323849 3.27011463323849
 3.27011463323849 0.00000000000000 3.27011463323849
 3.27011463323849 3.27011463323849 0.00000000000000
PRIMCOORD
 2 1
 50     0.00000000000000     0.00000000000000     0.00000000000000
 50     1.63505731661924     1.63505731661924     1.63505731661924
>>>>>>> 7cc294e (Central volumes for PBE Z=97-103, and PBEsol and LDA for Z=1-103)
=======
 0.00000000000000 3.27011463897089 3.27011463897089
 3.27011463897089 0.00000000000000 3.27011463897089
 3.27011463897089 3.27011463897089 0.00000000000000
PRIMCOORD
 2 1
 50     0.00000000000000     0.00000000000000     0.00000000000000
 50     1.63505731948544     1.63505731948544     1.63505731948544
>>>>>>> e84099c (Update new central volumes and add script for consistency checks)
