CRYSTAL
PRIMVEC
<<<<<<< HEAD
 0.00000000000000 2.36644163599366 2.36644163599366
 2.36644163599366 0.00000000000000 2.36644163599366
 2.36644163599366 2.36644163599366 0.00000000000000
=======
 0.00000000000000 2.36644159218268 2.36644159218268
 2.36644159218268 0.00000000000000 2.36644159218268
 2.36644159218268 2.36644159218268 0.00000000000000
>>>>>>> 7cc294e (Central volumes for PBE Z=97-103, and PBEsol and LDA for Z=1-103)
PRIMCOORD
 1 1
 50     0.00000000000000     0.00000000000000     0.00000000000000
