CRYSTAL
PRIMVEC
<<<<<<< HEAD
 3.03292902352297 0.00000000000000 0.00000000000000
 0.00000000000000 3.03292902352297 0.00000000000000
 0.00000000000000 0.00000000000000 3.03292902352297
=======
 3.03292900570125 0.00000000000000 0.00000000000000
 0.00000000000000 3.03292900570125 0.00000000000000
 0.00000000000000 0.00000000000000 3.03292900570125
>>>>>>> 7cc294e (Central volumes for PBE Z=97-103, and PBEsol and LDA for Z=1-103)
PRIMCOORD
 1 1
 50     0.00000000000000     0.00000000000000     0.00000000000000
