CRYSTAL
PRIMVEC
<<<<<<< HEAD
<<<<<<< HEAD
 -2.33734275326397 2.33734275326397 2.33734275326397
 2.33734275326397 -2.33734275326397 2.33734275326397
 2.33734275326397 2.33734275326397 -2.33734275326397
=======
 -2.33734274665303 2.33734274665303 2.33734274665303
 2.33734274665303 -2.33734274665303 2.33734274665303
 2.33734274665303 2.33734274665303 -2.33734274665303
>>>>>>> 7cc294e (Central volumes for PBE Z=97-103, and PBEsol and LDA for Z=1-103)
=======
 -2.33734275326397 2.33734275326397 2.33734275326397
 2.33734275326397 -2.33734275326397 2.33734275326397
 2.33734275326397 2.33734275326397 -2.33734275326397
>>>>>>> e84099c (Update new central volumes and add script for consistency checks)
PRIMCOORD
 1 1
 38     0.00000000000000     0.00000000000000     0.00000000000000
