CRYSTAL
PRIMVEC
<<<<<<< HEAD
<<<<<<< HEAD
 0.00000000000000 4.69625185561475 4.69625185561475
 4.69625185561475 0.00000000000000 4.69625185561475
 4.69625185561475 4.69625185561475 0.00000000000000
PRIMCOORD
 2 1
 38     0.00000000000000     0.00000000000000     0.00000000000000
 38     2.34812592780737     2.34812592780737     2.34812592780737
=======
 0.00000000000000 4.69625182002780 4.69625182002780
 4.69625182002780 0.00000000000000 4.69625182002780
 4.69625182002780 4.69625182002780 0.00000000000000
PRIMCOORD
 2 1
 38     0.00000000000000     0.00000000000000     0.00000000000000
 38     2.34812591001390     2.34812591001390     2.34812591001390
>>>>>>> 7cc294e (Central volumes for PBE Z=97-103, and PBEsol and LDA for Z=1-103)
=======
 0.00000000000000 4.69625185561475 4.69625185561475
 4.69625185561475 0.00000000000000 4.69625185561475
 4.69625185561475 4.69625185561475 0.00000000000000
PRIMCOORD
 2 1
 38     0.00000000000000     0.00000000000000     0.00000000000000
 38     2.34812592780737     2.34812592780737     2.34812592780737
>>>>>>> e84099c (Update new central volumes and add script for consistency checks)
