CRYSTAL
PRIMVEC
<<<<<<< HEAD
 0.00000000000000 3.00024456026487 3.00024456026487
 3.00024456026487 0.00000000000000 3.00024456026487
 3.00024456026487 3.00024456026487 0.00000000000000
PRIMCOORD
 2 1
 73     0.00000000000000     0.00000000000000     0.00000000000000
 73     1.50012228013243     1.50012228013243     1.50012228013243
=======
 0.00000000000000 3.00024455940229 3.00024455940229
 3.00024455940229 0.00000000000000 3.00024455940229
 3.00024455940229 3.00024455940229 0.00000000000000
PRIMCOORD
 2 1
 73     0.00000000000000     0.00000000000000     0.00000000000000
 73     1.50012227970115     1.50012227970115     1.50012227970115
>>>>>>> 7cc294e (Central volumes for PBE Z=97-103, and PBEsol and LDA for Z=1-103)
