CRYSTAL
PRIMVEC
<<<<<<< HEAD
 0.00000000000000 2.08828594535284 2.08828594535284
 2.08828594535284 0.00000000000000 2.08828594535284
 2.08828594535284 2.08828594535284 0.00000000000000
=======
 0.00000000000000 2.08828593923346 2.08828593923346
 2.08828593923346 0.00000000000000 2.08828593923346
 2.08828593923346 2.08828593923346 0.00000000000000
>>>>>>> 7cc294e (Central volumes for PBE Z=97-103, and PBEsol and LDA for Z=1-103)
PRIMCOORD
 1 1
 73     0.00000000000000     0.00000000000000     0.00000000000000
