CRYSTAL
PRIMVEC
<<<<<<< HEAD
 -1.87662150227143 1.87662150227143 1.87662150227143
 1.87662150227143 -1.87662150227143 1.87662150227143
 1.87662150227143 1.87662150227143 -1.87662150227143
=======
 -1.87662105647302 1.87662105647302 1.87662105647302
 1.87662105647302 -1.87662105647302 1.87662105647302
 1.87662105647302 1.87662105647302 -1.87662105647302
>>>>>>> 7cc294e (Central volumes for PBE Z=97-103, and PBEsol and LDA for Z=1-103)
PRIMCOORD
 1 1
 65     0.00000000000000     0.00000000000000     0.00000000000000
