CRYSTAL
PRIMVEC
<<<<<<< HEAD
<<<<<<< HEAD
 0.00000000000000 2.71850290625992 2.71850290625992
 2.71850290625992 0.00000000000000 2.71850290625992
 2.71850290625992 2.71850290625992 0.00000000000000
PRIMCOORD
 2 1
 65     0.00000000000000     0.00000000000000     0.00000000000000
 65     1.35925145312996     1.35925145312996     1.35925145312996
=======
 0.00000000000000 2.71850281179780 2.71850281179780
 2.71850281179780 0.00000000000000 2.71850281179780
 2.71850281179780 2.71850281179780 0.00000000000000
PRIMCOORD
 2 1
 65     0.00000000000000     0.00000000000000     0.00000000000000
 65     1.35925140589890     1.35925140589890     1.35925140589890
>>>>>>> 7cc294e (Central volumes for PBE Z=97-103, and PBEsol and LDA for Z=1-103)
=======
 0.00000000000000 2.71850290625992 2.71850290625992
 2.71850290625992 0.00000000000000 2.71850290625992
 2.71850290625992 2.71850290625992 0.00000000000000
PRIMCOORD
 2 1
 65     0.00000000000000     0.00000000000000     0.00000000000000
 65     1.35925145312996     1.35925145312996     1.35925145312996
>>>>>>> e84099c (Update new central volumes and add script for consistency checks)
