CRYSTAL
PRIMVEC
<<<<<<< HEAD
<<<<<<< HEAD
 2.69369404210600 0.00000000000000 0.00000000000000
 0.00000000000000 2.69369404210600 0.00000000000000
 0.00000000000000 0.00000000000000 2.69369404210600
=======
 2.69369363736506 0.00000000000000 0.00000000000000
 0.00000000000000 2.69369363736506 0.00000000000000
 0.00000000000000 0.00000000000000 2.69369363736506
>>>>>>> 7cc294e (Central volumes for PBE Z=97-103, and PBEsol and LDA for Z=1-103)
=======
 2.69369404210600 0.00000000000000 0.00000000000000
 0.00000000000000 2.69369404210600 0.00000000000000
 0.00000000000000 0.00000000000000 2.69369404210600
>>>>>>> e84099c (Update new central volumes and add script for consistency checks)
PRIMCOORD
 1 1
 65     0.00000000000000     0.00000000000000     0.00000000000000
