CRYSTAL
PRIMVEC
<<<<<<< HEAD
 -1.52463281497585 1.52463281497585 1.52463281497585
 1.52463281497585 -1.52463281497585 1.52463281497585
 1.52463281497585 1.52463281497585 -1.52463281497585
=======
 -1.52463281252035 1.52463281252035 1.52463281252035
 1.52463281252035 -1.52463281252035 1.52463281252035
 1.52463281252035 1.52463281252035 -1.52463281252035
>>>>>>> 7cc294e (Central volumes for PBE Z=97-103, and PBEsol and LDA for Z=1-103)
PRIMCOORD
 1 1
 43     0.00000000000000     0.00000000000000     0.00000000000000
