CRYSTAL
PRIMVEC
<<<<<<< HEAD
 0.00000000000000 2.73839580415801 2.73839580415801
 2.73839580415801 0.00000000000000 2.73839580415801
 2.73839580415801 2.73839580415801 0.00000000000000
PRIMCOORD
 2 1
 43     0.00000000000000     0.00000000000000     0.00000000000000
 43     1.36919790207901     1.36919790207901     1.36919790207901
=======
 0.00000000000000 2.73839579975459 2.73839579975459
 2.73839579975459 0.00000000000000 2.73839579975459
 2.73839579975459 2.73839579975459 0.00000000000000
PRIMCOORD
 2 1
 43     0.00000000000000     0.00000000000000     0.00000000000000
 43     1.36919789987729     1.36919789987729     1.36919789987729
>>>>>>> 7cc294e (Central volumes for PBE Z=97-103, and PBEsol and LDA for Z=1-103)
