CRYSTAL
PRIMVEC
<<<<<<< HEAD
 2.50333898586654 0.00000000000000 0.00000000000000
 0.00000000000000 2.50333898586654 0.00000000000000
 0.00000000000000 0.00000000000000 2.50333898586654
=======
 2.50333896341163 0.00000000000000 0.00000000000000
 0.00000000000000 2.50333896341163 0.00000000000000
 0.00000000000000 0.00000000000000 2.50333896341163
>>>>>>> 7cc294e (Central volumes for PBE Z=97-103, and PBEsol and LDA for Z=1-103)
PRIMCOORD
 1 1
 43     0.00000000000000     0.00000000000000     0.00000000000000
