CRYSTAL
PRIMVEC
<<<<<<< HEAD
<<<<<<< HEAD
 -1.89060513127579 1.89060513127579 1.89060513127579
 1.89060513127579 -1.89060513127579 1.89060513127579
 1.89060513127579 1.89060513127579 -1.89060513127579
=======
 -1.89060512575299 1.89060512575299 1.89060512575299
 1.89060512575299 -1.89060512575299 1.89060512575299
 1.89060512575299 1.89060512575299 -1.89060512575299
>>>>>>> 7cc294e (Central volumes for PBE Z=97-103, and PBEsol and LDA for Z=1-103)
=======
 -1.89060513127579 1.89060513127579 1.89060513127579
 1.89060513127579 -1.89060513127579 1.89060513127579
 1.89060513127579 1.89060513127579 -1.89060513127579
>>>>>>> e84099c (Update new central volumes and add script for consistency checks)
PRIMCOORD
 1 1
 52     0.00000000000000     0.00000000000000     0.00000000000000
