CRYSTAL
PRIMVEC
<<<<<<< HEAD
 0.00000000000000 3.53030287031900 3.53030287031900
 3.53030287031900 0.00000000000000 3.53030287031900
 3.53030287031900 3.53030287031900 0.00000000000000
PRIMCOORD
 2 1
 52     0.00000000000000     0.00000000000000     0.00000000000000
 52     1.76515143515950     1.76515143515950     1.76515143515950
=======
 0.00000000000000 3.53030286924764 3.53030286924764
 3.53030286924764 0.00000000000000 3.53030286924764
 3.53030286924764 3.53030286924764 0.00000000000000
PRIMCOORD
 2 1
 52     0.00000000000000     0.00000000000000     0.00000000000000
 52     1.76515143462382     1.76515143462382     1.76515143462382
>>>>>>> 7cc294e (Central volumes for PBE Z=97-103, and PBEsol and LDA for Z=1-103)
