CRYSTAL
PRIMVEC
<<<<<<< HEAD
 3.15054923152710 0.00000000000000 0.00000000000000
 0.00000000000000 3.15054923152710 0.00000000000000
 0.00000000000000 0.00000000000000 3.15054923152710
=======
 3.15054922533434 0.00000000000000 0.00000000000000
 0.00000000000000 3.15054922533434 0.00000000000000
 0.00000000000000 0.00000000000000 3.15054922533434
>>>>>>> 7cc294e (Central volumes for PBE Z=97-103, and PBEsol and LDA for Z=1-103)
PRIMCOORD
 1 1
 52     0.00000000000000     0.00000000000000     0.00000000000000
