CRYSTAL
PRIMVEC
<<<<<<< HEAD
 -1.97582798442795 1.97582798442795 1.97582798442795
 1.97582798442795 -1.97582798442795 1.97582798442795
 1.97582798442795 1.97582798442795 -1.97582798442795
=======
 -1.97582790714439 1.97582790714439 1.97582790714439
 1.97582790714439 -1.97582790714439 1.97582790714439
 1.97582790714439 1.97582790714439 -1.97582790714439
>>>>>>> 7cc294e (Central volumes for PBE Z=97-103, and PBEsol and LDA for Z=1-103)
PRIMCOORD
 1 1
 90     0.00000000000000     0.00000000000000     0.00000000000000
