CRYSTAL
PRIMVEC
<<<<<<< HEAD
<<<<<<< HEAD
 0.00000000000000 3.49231485518690 3.49231485518690
 3.49231485518690 0.00000000000000 3.49231485518690
 3.49231485518690 3.49231485518690 0.00000000000000
PRIMCOORD
 2 1
 90     0.00000000000000     0.00000000000000     0.00000000000000
 90     1.74615742759345     1.74615742759345     1.74615742759345
=======
 0.00000000000000 3.49231461498082 3.49231461498082
 3.49231461498082 0.00000000000000 3.49231461498082
 3.49231461498082 3.49231461498082 0.00000000000000
PRIMCOORD
 2 1
 90     0.00000000000000     0.00000000000000     0.00000000000000
 90     1.74615730749041     1.74615730749041     1.74615730749041
>>>>>>> 7cc294e (Central volumes for PBE Z=97-103, and PBEsol and LDA for Z=1-103)
=======
 0.00000000000000 3.49231485518690 3.49231485518690
 3.49231485518690 0.00000000000000 3.49231485518690
 3.49231485518690 3.49231485518690 0.00000000000000
PRIMCOORD
 2 1
 90     0.00000000000000     0.00000000000000     0.00000000000000
 90     1.74615742759345     1.74615742759345     1.74615742759345
>>>>>>> e84099c (Update new central volumes and add script for consistency checks)
