CRYSTAL
PRIMVEC
<<<<<<< HEAD
 3.20826737769491 0.00000000000000 0.00000000000000
 0.00000000000000 3.20826737769491 0.00000000000000
 0.00000000000000 0.00000000000000 3.20826737769491
=======
 3.20826651271305 0.00000000000000 0.00000000000000
 0.00000000000000 3.20826651271305 0.00000000000000
 0.00000000000000 0.00000000000000 3.20826651271305
>>>>>>> 7cc294e (Central volumes for PBE Z=97-103, and PBEsol and LDA for Z=1-103)
PRIMCOORD
 1 1
 90     0.00000000000000     0.00000000000000     0.00000000000000
