CRYSTAL
PRIMVEC
<<<<<<< HEAD
<<<<<<< HEAD
 0.00000000000000 2.75983321584937 2.75983321584937
 2.75983321584937 0.00000000000000 2.75983321584937
 2.75983321584937 2.75983321584937 0.00000000000000
PRIMCOORD
 2 1
 22     0.00000000000000     0.00000000000000     0.00000000000000
 22     1.37991660792469     1.37991660792469     1.37991660792469
=======
 0.00000000000000 2.75983321081107 2.75983321081107
 2.75983321081107 0.00000000000000 2.75983321081107
 2.75983321081107 2.75983321081107 0.00000000000000
PRIMCOORD
 2 1
 22     0.00000000000000     0.00000000000000     0.00000000000000
 22     1.37991660540554     1.37991660540554     1.37991660540554
>>>>>>> 7cc294e (Central volumes for PBE Z=97-103, and PBEsol and LDA for Z=1-103)
=======
 0.00000000000000 2.75983321584937 2.75983321584937
 2.75983321584937 0.00000000000000 2.75983321584937
 2.75983321584937 2.75983321584937 0.00000000000000
PRIMCOORD
 2 1
 22     0.00000000000000     0.00000000000000     0.00000000000000
 22     1.37991660792469     1.37991660792469     1.37991660792469
>>>>>>> e84099c (Update new central volumes and add script for consistency checks)
