CRYSTAL
PRIMVEC
<<<<<<< HEAD
 0.00000000000000 2.02844534128402 2.02844534128402
 2.02844534128402 0.00000000000000 2.02844534128402
 2.02844534128402 2.02844534128402 0.00000000000000
=======
 0.00000000000000 2.02844534056825 2.02844534056825
 2.02844534056825 0.00000000000000 2.02844534056825
 2.02844534056825 2.02844534056825 0.00000000000000
>>>>>>> 7cc294e (Central volumes for PBE Z=97-103, and PBEsol and LDA for Z=1-103)
PRIMCOORD
 1 1
 22     0.00000000000000     0.00000000000000     0.00000000000000
