CRYSTAL
PRIMVEC
<<<<<<< HEAD
 0.00000000000000 3.43937448347500 3.43937448347500
 3.43937448347500 0.00000000000000 3.43937448347500
 3.43937448347500 3.43937448347500 0.00000000000000
PRIMCOORD
 2 1
 81     0.00000000000000     0.00000000000000     0.00000000000000
 81     1.71968724173750     1.71968724173750     1.71968724173750
=======
 0.00000000000000 3.43937445512412 3.43937445512412
 3.43937445512412 0.00000000000000 3.43937445512412
 3.43937445512412 3.43937445512412 0.00000000000000
PRIMCOORD
 2 1
 81     0.00000000000000     0.00000000000000     0.00000000000000
 81     1.71968722756206     1.71968722756206     1.71968722756206
>>>>>>> 7cc294e (Central volumes for PBE Z=97-103, and PBEsol and LDA for Z=1-103)
