CRYSTAL
PRIMVEC
<<<<<<< HEAD
 0.00000000000000 2.42030474012872 2.42030474012872
 2.42030474012872 0.00000000000000 2.42030474012872
 2.42030474012872 2.42030474012872 0.00000000000000
=======
 0.00000000000000 2.42030473517186 2.42030473517186
 2.42030473517186 0.00000000000000 2.42030473517186
 2.42030473517186 2.42030473517186 0.00000000000000
>>>>>>> 7cc294e (Central volumes for PBE Z=97-103, and PBEsol and LDA for Z=1-103)
PRIMCOORD
 1 1
 81     0.00000000000000     0.00000000000000     0.00000000000000
