CRYSTAL
PRIMVEC
<<<<<<< HEAD
 3.14452453796267 0.00000000000000 0.00000000000000
 0.00000000000000 3.14452453796267 0.00000000000000
 0.00000000000000 0.00000000000000 3.14452453796267
=======
 3.14452450951744 0.00000000000000 0.00000000000000
 0.00000000000000 3.14452450951744 0.00000000000000
 0.00000000000000 0.00000000000000 3.14452450951744
>>>>>>> 7cc294e (Central volumes for PBE Z=97-103, and PBEsol and LDA for Z=1-103)
PRIMCOORD
 1 1
 81     0.00000000000000     0.00000000000000     0.00000000000000
