CRYSTAL
PRIMVEC
<<<<<<< HEAD
 -1.98370274599693 1.98370274599693 1.98370274599693
 1.98370274599693 -1.98370274599693 1.98370274599693
 1.98370274599693 1.98370274599693 -1.98370274599693
=======
 -1.98370274481618 1.98370274481618 1.98370274481618
 1.98370274481618 -1.98370274481618 1.98370274481618
 1.98370274481618 1.98370274481618 -1.98370274481618
>>>>>>> 7cc294e (Central volumes for PBE Z=97-103, and PBEsol and LDA for Z=1-103)
PRIMCOORD
 1 1
 69     0.00000000000000     0.00000000000000     0.00000000000000
