CRYSTAL
PRIMVEC
<<<<<<< HEAD
 0.00000000000000 4.12549337714279 4.12549337714279
 4.12549337714279 0.00000000000000 4.12549337714279
 4.12549337714279 4.12549337714279 0.00000000000000
PRIMCOORD
 2 1
 69     0.00000000000000     0.00000000000000     0.00000000000000
 69     2.06274668857139     2.06274668857139     2.06274668857139
=======
 0.00000000000000 4.12549331033700 4.12549331033700
 4.12549331033700 0.00000000000000 4.12549331033700
 4.12549331033700 4.12549331033700 0.00000000000000
PRIMCOORD
 2 1
 69     0.00000000000000     0.00000000000000     0.00000000000000
 69     2.06274665516850     2.06274665516850     2.06274665516850
>>>>>>> 7cc294e (Central volumes for PBE Z=97-103, and PBEsol and LDA for Z=1-103)
