CRYSTAL
PRIMVEC
<<<<<<< HEAD
 0.00000000000000 2.51786421904476 2.51786421904476
 2.51786421904476 0.00000000000000 2.51786421904476
 2.51786421904476 2.51786421904476 0.00000000000000
=======
 0.00000000000000 2.51786421765539 2.51786421765539
 2.51786421765539 0.00000000000000 2.51786421765539
 2.51786421765539 2.51786421765539 0.00000000000000
>>>>>>> 7cc294e (Central volumes for PBE Z=97-103, and PBEsol and LDA for Z=1-103)
PRIMCOORD
 1 1
 69     0.00000000000000     0.00000000000000     0.00000000000000
