CRYSTAL
PRIMVEC
<<<<<<< HEAD
 3.20127282787257 0.00000000000000 0.00000000000000
 0.00000000000000 3.20127282787257 0.00000000000000
 0.00000000000000 0.00000000000000 3.20127282787257
=======
 3.20127282588619 0.00000000000000 0.00000000000000
 0.00000000000000 3.20127282588619 0.00000000000000
 0.00000000000000 0.00000000000000 3.20127282588619
>>>>>>> 7cc294e (Central volumes for PBE Z=97-103, and PBEsol and LDA for Z=1-103)
PRIMCOORD
 1 1
 69     0.00000000000000     0.00000000000000     0.00000000000000
