CRYSTAL
PRIMVEC
<<<<<<< HEAD
 -1.68618060295711 1.68618060295711 1.68618060295711
 1.68618060295711 -1.68618060295711 1.68618060295711
 1.68618060295711 1.68618060295711 -1.68618060295711
=======
 -1.68618057583375 1.68618057583375 1.68618057583375
 1.68618057583375 -1.68618057583375 1.68618057583375
 1.68618057583375 1.68618057583375 -1.68618057583375
>>>>>>> 7cc294e (Central volumes for PBE Z=97-103, and PBEsol and LDA for Z=1-103)
PRIMCOORD
 1 1
 92     0.00000000000000     0.00000000000000     0.00000000000000
