CRYSTAL
PRIMVEC
<<<<<<< HEAD
<<<<<<< HEAD
 0.00000000000000 2.88091826735904 2.88091826735904
 2.88091826735904 0.00000000000000 2.88091826735904
 2.88091826735904 2.88091826735904 0.00000000000000
PRIMCOORD
 2 1
 92     0.00000000000000     0.00000000000000     0.00000000000000
 92     1.44045913367952     1.44045913367952     1.44045913367952
=======
 0.00000000000000 2.88091812575147 2.88091812575147
 2.88091812575147 0.00000000000000 2.88091812575147
 2.88091812575147 2.88091812575147 0.00000000000000
PRIMCOORD
 2 1
 92     0.00000000000000     0.00000000000000     0.00000000000000
 92     1.44045906287574     1.44045906287574     1.44045906287574
>>>>>>> 7cc294e (Central volumes for PBE Z=97-103, and PBEsol and LDA for Z=1-103)
=======
 0.00000000000000 2.88091826735904 2.88091826735904
 2.88091826735904 0.00000000000000 2.88091826735904
 2.88091826735904 2.88091826735904 0.00000000000000
PRIMCOORD
 2 1
 92     0.00000000000000     0.00000000000000     0.00000000000000
 92     1.44045913367952     1.44045913367952     1.44045913367952
>>>>>>> e84099c (Update new central volumes and add script for consistency checks)
