CRYSTAL
PRIMVEC
<<<<<<< HEAD
 2.63342894883989 0.00000000000000 0.00000000000000
 0.00000000000000 2.63342894883989 0.00000000000000
 0.00000000000000 0.00000000000000 2.63342894883989
=======
 2.63342887447701 0.00000000000000 0.00000000000000
 0.00000000000000 2.63342887447701 0.00000000000000
 0.00000000000000 0.00000000000000 2.63342887447701
>>>>>>> 7cc294e (Central volumes for PBE Z=97-103, and PBEsol and LDA for Z=1-103)
PRIMCOORD
 1 1
 92     0.00000000000000     0.00000000000000     0.00000000000000
