CRYSTAL
PRIMVEC
<<<<<<< HEAD
 -1.47941676112940 1.47941676112940 1.47941676112940
 1.47941676112940 -1.47941676112940 1.47941676112940
 1.47941676112940 1.47941676112940 -1.47941676112940
=======
 -1.47941675994283 1.47941675994283 1.47941675994283
 1.47941675994283 -1.47941675994283 1.47941675994283
 1.47941675994283 1.47941675994283 -1.47941675994283
>>>>>>> 7cc294e (Central volumes for PBE Z=97-103, and PBEsol and LDA for Z=1-103)
PRIMCOORD
 1 1
 23     0.00000000000000     0.00000000000000     0.00000000000000
