CRYSTAL
PRIMVEC
<<<<<<< HEAD
<<<<<<< HEAD
 0.00000000000000 2.59355569365375 2.59355569365375
 2.59355569365375 0.00000000000000 2.59355569365375
 2.59355569365375 2.59355569365375 0.00000000000000
PRIMCOORD
 2 1
 23     0.00000000000000     0.00000000000000     0.00000000000000
 23     1.29677784682687     1.29677784682687     1.29677784682687
=======
 0.00000000000000 2.59355569020344 2.59355569020344
 2.59355569020344 0.00000000000000 2.59355569020344
 2.59355569020344 2.59355569020344 0.00000000000000
PRIMCOORD
 2 1
 23     0.00000000000000     0.00000000000000     0.00000000000000
 23     1.29677784510172     1.29677784510172     1.29677784510172
>>>>>>> 7cc294e (Central volumes for PBE Z=97-103, and PBEsol and LDA for Z=1-103)
=======
 0.00000000000000 2.59355569365375 2.59355569365375
 2.59355569365375 0.00000000000000 2.59355569365375
 2.59355569365375 2.59355569365375 0.00000000000000
PRIMCOORD
 2 1
 23     0.00000000000000     0.00000000000000     0.00000000000000
 23     1.29677784682687     1.29677784682687     1.29677784682687
>>>>>>> e84099c (Update new central volumes and add script for consistency checks)
