CRYSTAL
PRIMVEC
<<<<<<< HEAD
 2.41223216709775 0.00000000000000 0.00000000000000
 0.00000000000000 2.41223216709775 0.00000000000000
 0.00000000000000 0.00000000000000 2.41223216709775
=======
 2.41223215732111 0.00000000000000 0.00000000000000
 0.00000000000000 2.41223215732111 0.00000000000000
 0.00000000000000 0.00000000000000 2.41223215732111
>>>>>>> 7cc294e (Central volumes for PBE Z=97-103, and PBEsol and LDA for Z=1-103)
PRIMCOORD
 1 1
 23     0.00000000000000     0.00000000000000     0.00000000000000
