CRYSTAL
PRIMVEC
<<<<<<< HEAD
<<<<<<< HEAD
 0.00000000000000 2.87811798873974 2.87811798873974
 2.87811798873974 0.00000000000000 2.87811798873974
 2.87811798873974 2.87811798873974 0.00000000000000
PRIMCOORD
 2 1
 74     0.00000000000000     0.00000000000000     0.00000000000000
 74     1.43905899436987     1.43905899436987     1.43905899436987
=======
 0.00000000000000 2.87811798803121 2.87811798803121
 2.87811798803121 0.00000000000000 2.87811798803121
 2.87811798803121 2.87811798803121 0.00000000000000
PRIMCOORD
 2 1
 74     0.00000000000000     0.00000000000000     0.00000000000000
 74     1.43905899401561     1.43905899401561     1.43905899401561
>>>>>>> 7cc294e (Central volumes for PBE Z=97-103, and PBEsol and LDA for Z=1-103)
=======
 0.00000000000000 2.87811798873974 2.87811798873974
 2.87811798873974 0.00000000000000 2.87811798873974
 2.87811798873974 2.87811798873974 0.00000000000000
PRIMCOORD
 2 1
 74     0.00000000000000     0.00000000000000     0.00000000000000
 74     1.43905899436987     1.43905899436987     1.43905899436987
>>>>>>> e84099c (Update new central volumes and add script for consistency checks)
