CRYSTAL
PRIMVEC
<<<<<<< HEAD
 0.00000000000000 1.99937255372240 1.99937255372240
 1.99937255372240 0.00000000000000 1.99937255372240
 1.99937255372240 1.99937255372240 0.00000000000000
=======
 0.00000000000000 1.99937254399068 1.99937254399068
 1.99937254399068 0.00000000000000 1.99937254399068
 1.99937254399068 1.99937254399068 0.00000000000000
>>>>>>> 7cc294e (Central volumes for PBE Z=97-103, and PBEsol and LDA for Z=1-103)
PRIMCOORD
 1 1
 74     0.00000000000000     0.00000000000000     0.00000000000000
