CRYSTAL
PRIMVEC
<<<<<<< HEAD
 2.60990175208838 0.00000000000000 0.00000000000000
 0.00000000000000 2.60990175208838 0.00000000000000
 0.00000000000000 0.00000000000000 2.60990175208838
=======
 2.60990172625628 0.00000000000000 0.00000000000000
 0.00000000000000 2.60990172625628 0.00000000000000
 0.00000000000000 0.00000000000000 2.60990172625628
>>>>>>> 7cc294e (Central volumes for PBE Z=97-103, and PBEsol and LDA for Z=1-103)
PRIMCOORD
 1 1
 74     0.00000000000000     0.00000000000000     0.00000000000000
