CRYSTAL
PRIMVEC
<<<<<<< HEAD
 -2.61291492101422 2.61291492101422 2.61291492101422
 2.61291492101422 -2.61291492101422 2.61291492101422
 2.61291492101422 2.61291492101422 -2.61291492101422
=======
 -2.61291492049419 2.61291492049419 2.61291492049419
 2.61291492049419 -2.61291492049419 2.61291492049419
 2.61291492049419 2.61291492049419 -2.61291492049419
>>>>>>> 7cc294e (Central volumes for PBE Z=97-103, and PBEsol and LDA for Z=1-103)
PRIMCOORD
 1 1
 54     0.00000000000000     0.00000000000000     0.00000000000000
