CRYSTAL
PRIMVEC
<<<<<<< HEAD
 0.00000000000000 5.22097547519728 5.22097547519728
 5.22097547519728 0.00000000000000 5.22097547519728
 5.22097547519728 5.22097547519728 0.00000000000000
PRIMCOORD
 2 1
 54     0.00000000000000     0.00000000000000     0.00000000000000
 54     2.61048773759864     2.61048773759864     2.61048773759864
=======
 0.00000000000000 5.22097542261770 5.22097542261770
 5.22097542261770 0.00000000000000 5.22097542261770
 5.22097542261770 5.22097542261770 0.00000000000000
PRIMCOORD
 2 1
 54     0.00000000000000     0.00000000000000     0.00000000000000
 54     2.61048771130885     2.61048771130885     2.61048771130885
>>>>>>> 7cc294e (Central volumes for PBE Z=97-103, and PBEsol and LDA for Z=1-103)
