CRYSTAL
PRIMVEC
<<<<<<< HEAD
 0.00000000000000 3.24105823507083 3.24105823507083
 3.24105823507083 0.00000000000000 3.24105823507083
 3.24105823507083 3.24105823507083 0.00000000000000
=======
 0.00000000000000 3.24105823364691 3.24105823364691
 3.24105823364691 0.00000000000000 3.24105823364691
 3.24105823364691 3.24105823364691 0.00000000000000
>>>>>>> 7cc294e (Central volumes for PBE Z=97-103, and PBEsol and LDA for Z=1-103)
PRIMCOORD
 1 1
 54     0.00000000000000     0.00000000000000     0.00000000000000
