CRYSTAL
PRIMVEC
<<<<<<< HEAD
<<<<<<< HEAD
 4.55874388185180 0.00000000000000 0.00000000000000
 0.00000000000000 4.55874388185180 0.00000000000000
 0.00000000000000 0.00000000000000 4.55874388185180
=======
 4.55874387888890 0.00000000000000 0.00000000000000
 0.00000000000000 4.55874387888890 0.00000000000000
 0.00000000000000 0.00000000000000 4.55874387888890
>>>>>>> 7cc294e (Central volumes for PBE Z=97-103, and PBEsol and LDA for Z=1-103)
=======
 4.55874388185180 0.00000000000000 0.00000000000000
 0.00000000000000 4.55874388185180 0.00000000000000
 0.00000000000000 0.00000000000000 4.55874388185180
>>>>>>> e84099c (Update new central volumes and add script for consistency checks)
PRIMCOORD
 1 1
 54     0.00000000000000     0.00000000000000     0.00000000000000
