CRYSTAL
PRIMVEC
<<<<<<< HEAD
 4.55874388185180 0.00000000000000 0.00000000000000
 0.00000000000000 4.55874388185180 0.00000000000000
 0.00000000000000 0.00000000000000 4.55874388185180
=======
 4.55874387888890 0.00000000000000 0.00000000000000
 0.00000000000000 4.55874387888890 0.00000000000000
 0.00000000000000 0.00000000000000 4.55874387888890
>>>>>>> 7cc294e (Central volumes for PBE Z=97-103, and PBEsol and LDA for Z=1-103)
PRIMCOORD
 1 1
 54     0.00000000000000     0.00000000000000     0.00000000000000
