CRYSTAL
PRIMVEC
<<<<<<< HEAD
<<<<<<< HEAD
 0.00000000000000 3.41340784389005 3.41340784389005
 3.41340784389005 0.00000000000000 3.41340784389005
 3.41340784389005 3.41340784389005 0.00000000000000
PRIMCOORD
 2 1
 39     0.00000000000000     0.00000000000000     0.00000000000000
 39     1.70670392194503     1.70670392194503     1.70670392194503
=======
 0.00000000000000 3.41340775110405 3.41340775110405
 3.41340775110405 0.00000000000000 3.41340775110405
 3.41340775110405 3.41340775110405 0.00000000000000
PRIMCOORD
 2 1
 39     0.00000000000000     0.00000000000000     0.00000000000000
 39     1.70670387555203     1.70670387555203     1.70670387555203
>>>>>>> 7cc294e (Central volumes for PBE Z=97-103, and PBEsol and LDA for Z=1-103)
=======
 0.00000000000000 3.41340784389005 3.41340784389005
 3.41340784389005 0.00000000000000 3.41340784389005
 3.41340784389005 3.41340784389005 0.00000000000000
PRIMCOORD
 2 1
 39     0.00000000000000     0.00000000000000     0.00000000000000
 39     1.70670392194503     1.70670392194503     1.70670392194503
>>>>>>> e84099c (Update new central volumes and add script for consistency checks)
