CRYSTAL
PRIMVEC
<<<<<<< HEAD
 -1.99509419687155 1.99509419687155 1.99509419687155
 1.99509419687155 -1.99509419687155 1.99509419687155
 1.99509419687155 1.99509419687155 -1.99509419687155
=======
 -1.99509419481769 1.99509419481769 1.99509419481769
 1.99509419481769 -1.99509419481769 1.99509419481769
 1.99509419481769 1.99509419481769 -1.99509419481769
>>>>>>> 7cc294e (Central volumes for PBE Z=97-103, and PBEsol and LDA for Z=1-103)
PRIMCOORD
 1 1
 70     0.00000000000000     0.00000000000000     0.00000000000000
