CRYSTAL
PRIMVEC
<<<<<<< HEAD
<<<<<<< HEAD
 0.00000000000000 4.17998424025083 4.17998424025083
 4.17998424025083 0.00000000000000 4.17998424025083
 4.17998424025083 4.17998424025083 0.00000000000000
PRIMCOORD
 2 1
 70     0.00000000000000     0.00000000000000     0.00000000000000
 70     2.08999212012541     2.08999212012541     2.08999212012541
=======
 0.00000000000000 4.17998421548794 4.17998421548794
 4.17998421548794 0.00000000000000 4.17998421548794
 4.17998421548794 4.17998421548794 0.00000000000000
PRIMCOORD
 2 1
 70     0.00000000000000     0.00000000000000     0.00000000000000
 70     2.08999210774397     2.08999210774397     2.08999210774397
>>>>>>> 7cc294e (Central volumes for PBE Z=97-103, and PBEsol and LDA for Z=1-103)
=======
 0.00000000000000 4.17998424025083 4.17998424025083
 4.17998424025083 0.00000000000000 4.17998424025083
 4.17998424025083 4.17998424025083 0.00000000000000
PRIMCOORD
 2 1
 70     0.00000000000000     0.00000000000000     0.00000000000000
 70     2.08999212012541     2.08999212012541     2.08999212012541
>>>>>>> e84099c (Update new central volumes and add script for consistency checks)
