CRYSTAL
PRIMVEC
<<<<<<< HEAD
<<<<<<< HEAD
 3.24565325938323 0.00000000000000 0.00000000000000
 0.00000000000000 3.24565325938323 0.00000000000000
 0.00000000000000 0.00000000000000 3.24565325938323
=======
 3.24565321293258 0.00000000000000 0.00000000000000
 0.00000000000000 3.24565321293258 0.00000000000000
 0.00000000000000 0.00000000000000 3.24565321293258
>>>>>>> 7cc294e (Central volumes for PBE Z=97-103, and PBEsol and LDA for Z=1-103)
=======
 3.24565325938323 0.00000000000000 0.00000000000000
 0.00000000000000 3.24565325938323 0.00000000000000
 0.00000000000000 0.00000000000000 3.24565325938323
>>>>>>> e84099c (Update new central volumes and add script for consistency checks)
PRIMCOORD
 1 1
 70     0.00000000000000     0.00000000000000     0.00000000000000
