CRYSTAL
PRIMVEC
<<<<<<< HEAD
 -1.52962528623212 1.52962528623212 1.52962528623212
 1.52962528623212 -1.52962528623212 1.52962528623212
 1.52962528623212 1.52962528623212 -1.52962528623212
=======
 -1.52962528060974 1.52962528060974 1.52962528060974
 1.52962528060974 -1.52962528060974 1.52962528060974
 1.52962528060974 1.52962528060974 -1.52962528060974
>>>>>>> 7cc294e (Central volumes for PBE Z=97-103, and PBEsol and LDA for Z=1-103)
PRIMCOORD
 1 1
 30     0.00000000000000     0.00000000000000     0.00000000000000
