CRYSTAL
PRIMVEC
<<<<<<< HEAD
 0.00000000000000 2.82784292088258 2.82784292088258
 2.82784292088258 0.00000000000000 2.82784292088258
 2.82784292088258 2.82784292088258 0.00000000000000
PRIMCOORD
 2 1
 30     0.00000000000000     0.00000000000000     0.00000000000000
 30     1.41392146044129     1.41392146044129     1.41392146044129
=======
 0.00000000000000 2.82784291083152 2.82784291083152
 2.82784291083152 0.00000000000000 2.82784291083152
 2.82784291083152 2.82784291083152 0.00000000000000
PRIMCOORD
 2 1
 30     0.00000000000000     0.00000000000000     0.00000000000000
 30     1.41392145541576     1.41392145541576     1.41392145541576
>>>>>>> 7cc294e (Central volumes for PBE Z=97-103, and PBEsol and LDA for Z=1-103)
