CRYSTAL
PRIMVEC
<<<<<<< HEAD
<<<<<<< HEAD
 2.56445122783108 0.00000000000000 0.00000000000000
 0.00000000000000 2.56445122783108 0.00000000000000
 0.00000000000000 0.00000000000000 2.56445122783108
=======
 2.56445122581800 0.00000000000000 0.00000000000000
 0.00000000000000 2.56445122581800 0.00000000000000
 0.00000000000000 0.00000000000000 2.56445122581800
>>>>>>> 7cc294e (Central volumes for PBE Z=97-103, and PBEsol and LDA for Z=1-103)
=======
 2.56445122783108 0.00000000000000 0.00000000000000
 0.00000000000000 2.56445122783108 0.00000000000000
 0.00000000000000 0.00000000000000 2.56445122783108
>>>>>>> e84099c (Update new central volumes and add script for consistency checks)
PRIMCOORD
 1 1
 30     0.00000000000000     0.00000000000000     0.00000000000000
