CRYSTAL
PRIMVEC
<<<<<<< HEAD
 -1.76061191104250 1.76061191104250 1.76061191104250
 1.76061191104250 -1.76061191104250 1.76061191104250
 1.76061191104250 1.76061191104250 -1.76061191104250
=======
 -1.76061191027529 1.76061191027529 1.76061191027529
 1.76061191027529 -1.76061191027529 1.76061191027529
 1.76061191027529 1.76061191027529 -1.76061191027529
>>>>>>> 7cc294e (Central volumes for PBE Z=97-103, and PBEsol and LDA for Z=1-103)
PRIMCOORD
 1 1
 40     0.00000000000000     0.00000000000000     0.00000000000000
