CRYSTAL
PRIMVEC
<<<<<<< HEAD
<<<<<<< HEAD
 0.00000000000000 3.06968731365000 3.06968731365000
 3.06968731365000 0.00000000000000 3.06968731365000
 3.06968731365000 3.06968731365000 0.00000000000000
PRIMCOORD
 2 1
 40     0.00000000000000     0.00000000000000     0.00000000000000
 40     1.53484365682500     1.53484365682500     1.53484365682500
=======
 0.00000000000000 3.06968730734197 3.06968730734197
 3.06968730734197 0.00000000000000 3.06968730734197
 3.06968730734197 3.06968730734197 0.00000000000000
PRIMCOORD
 2 1
 40     0.00000000000000     0.00000000000000     0.00000000000000
 40     1.53484365367098     1.53484365367098     1.53484365367098
>>>>>>> 7cc294e (Central volumes for PBE Z=97-103, and PBEsol and LDA for Z=1-103)
=======
 0.00000000000000 3.06968731365000 3.06968731365000
 3.06968731365000 0.00000000000000 3.06968731365000
 3.06968731365000 3.06968731365000 0.00000000000000
PRIMCOORD
 2 1
 40     0.00000000000000     0.00000000000000     0.00000000000000
 40     1.53484365682500     1.53484365682500     1.53484365682500
>>>>>>> e84099c (Update new central volumes and add script for consistency checks)
