CRYSTAL
PRIMVEC
<<<<<<< HEAD
<<<<<<< HEAD
 2.86544884508478 0.00000000000000 0.00000000000000
 0.00000000000000 2.86544884508478 0.00000000000000
 0.00000000000000 0.00000000000000 2.86544884508478
=======
 2.86544883718886 0.00000000000000 0.00000000000000
 0.00000000000000 2.86544883718886 0.00000000000000
 0.00000000000000 0.00000000000000 2.86544883718886
>>>>>>> 7cc294e (Central volumes for PBE Z=97-103, and PBEsol and LDA for Z=1-103)
=======
 2.86544884508478 0.00000000000000 0.00000000000000
 0.00000000000000 2.86544884508478 0.00000000000000
 0.00000000000000 0.00000000000000 2.86544884508478
>>>>>>> e84099c (Update new central volumes and add script for consistency checks)
PRIMCOORD
 1 1
 40     0.00000000000000     0.00000000000000     0.00000000000000
