CRYSTAL
PRIMVEC
<<<<<<< HEAD
<<<<<<< HEAD
 -2.17850995502383 2.17850995502383 2.17850995502383
 2.17850995502383 -2.17850995502383 2.17850995502383
 2.17850995502383 2.17850995502383 -2.17850995502383
=======
 -2.17850993822607 2.17850993822607 2.17850993822607
 2.17850993822607 -2.17850993822607 2.17850993822607
 2.17850993822607 2.17850993822607 -2.17850993822607
>>>>>>> 7cc294e (Central volumes for PBE Z=97-103, and PBEsol and LDA for Z=1-103)
=======
 -2.17850995502383 2.17850995502383 2.17850995502383
 2.17850995502383 -2.17850995502383 2.17850995502383
 2.17850995502383 2.17850995502383 -2.17850995502383
>>>>>>> e84099c (Update new central volumes and add script for consistency checks)
PRIMCOORD
 1 1
 89     0.00000000000000     0.00000000000000     0.00000000000000
