CRYSTAL
PRIMVEC
<<<<<<< HEAD
<<<<<<< HEAD
 0.00000000000000 3.85480750887850 3.85480750887850
 3.85480750887850 0.00000000000000 3.85480750887850
 3.85480750887850 3.85480750887850 0.00000000000000
PRIMCOORD
 2 1
 89     0.00000000000000     0.00000000000000     0.00000000000000
 89     1.92740375443925     1.92740375443925     1.92740375443925
=======
 0.00000000000000 3.85480731999984 3.85480731999984
 3.85480731999984 0.00000000000000 3.85480731999984
 3.85480731999984 3.85480731999984 0.00000000000000
PRIMCOORD
 2 1
 89     0.00000000000000     0.00000000000000     0.00000000000000
 89     1.92740365999992     1.92740365999992     1.92740365999992
>>>>>>> 7cc294e (Central volumes for PBE Z=97-103, and PBEsol and LDA for Z=1-103)
=======
 0.00000000000000 3.85480750887850 3.85480750887850
 3.85480750887850 0.00000000000000 3.85480750887850
 3.85480750887850 3.85480750887850 0.00000000000000
PRIMCOORD
 2 1
 89     0.00000000000000     0.00000000000000     0.00000000000000
 89     1.92740375443925     1.92740375443925     1.92740375443925
>>>>>>> e84099c (Update new central volumes and add script for consistency checks)
