CRYSTAL
PRIMVEC
<<<<<<< HEAD
 0.00000000000000 2.73049025568153 2.73049025568153
 2.73049025568153 0.00000000000000 2.73049025568153
 2.73049025568153 2.73049025568153 0.00000000000000
=======
 0.00000000000000 2.73049019681123 2.73049019681123
 2.73049019681123 0.00000000000000 2.73049019681123
 2.73049019681123 2.73049019681123 0.00000000000000
>>>>>>> 7cc294e (Central volumes for PBE Z=97-103, and PBEsol and LDA for Z=1-103)
PRIMCOORD
 1 1
 89     0.00000000000000     0.00000000000000     0.00000000000000
