CRYSTAL
PRIMVEC
<<<<<<< HEAD
<<<<<<< HEAD
 3.54161537582736 0.00000000000000 0.00000000000000
 0.00000000000000 3.54161537582736 0.00000000000000
 0.00000000000000 0.00000000000000 3.54161537582736
=======
 3.54161474423301 0.00000000000000 0.00000000000000
 0.00000000000000 3.54161474423301 0.00000000000000
 0.00000000000000 0.00000000000000 3.54161474423301
>>>>>>> 7cc294e (Central volumes for PBE Z=97-103, and PBEsol and LDA for Z=1-103)
=======
 3.54161537582736 0.00000000000000 0.00000000000000
 0.00000000000000 3.54161537582736 0.00000000000000
 0.00000000000000 0.00000000000000 3.54161537582736
>>>>>>> e84099c (Update new central volumes and add script for consistency checks)
PRIMCOORD
 1 1
 89     0.00000000000000     0.00000000000000     0.00000000000000
