CRYSTAL
PRIMVEC
<<<<<<< HEAD
<<<<<<< HEAD
 -1.59142263794345 1.59142263794345 1.59142263794345
 1.59142263794345 -1.59142263794345 1.59142263794345
 1.59142263794345 1.59142263794345 -1.59142263794345
=======
 -1.59142253436820 1.59142253436820 1.59142253436820
 1.59142253436820 -1.59142253436820 1.59142253436820
 1.59142253436820 1.59142253436820 -1.59142253436820
>>>>>>> 7cc294e (Central volumes for PBE Z=97-103, and PBEsol and LDA for Z=1-103)
=======
 -1.59142263794345 1.59142263794345 1.59142263794345
 1.59142263794345 -1.59142263794345 1.59142263794345
 1.59142263794345 1.59142263794345 -1.59142263794345
>>>>>>> e84099c (Update new central volumes and add script for consistency checks)
PRIMCOORD
 1 1
 47     0.00000000000000     0.00000000000000     0.00000000000000
