CRYSTAL
PRIMVEC
<<<<<<< HEAD
<<<<<<< HEAD
 0.00000000000000 2.96577655078153 2.96577655078153
 2.96577655078153 0.00000000000000 2.96577655078153
 2.96577655078153 2.96577655078153 0.00000000000000
PRIMCOORD
 2 1
 47     0.00000000000000     0.00000000000000     0.00000000000000
 47     1.48288827539077     1.48288827539077     1.48288827539077
=======
 0.00000000000000 2.96577654404031 2.96577654404031
 2.96577654404031 0.00000000000000 2.96577654404031
 2.96577654404031 2.96577654404031 0.00000000000000
PRIMCOORD
 2 1
 47     0.00000000000000     0.00000000000000     0.00000000000000
 47     1.48288827202015     1.48288827202015     1.48288827202015
>>>>>>> 7cc294e (Central volumes for PBE Z=97-103, and PBEsol and LDA for Z=1-103)
=======
 0.00000000000000 2.96577655078153 2.96577655078153
 2.96577655078153 0.00000000000000 2.96577655078153
 2.96577655078153 2.96577655078153 0.00000000000000
PRIMCOORD
 2 1
 47     0.00000000000000     0.00000000000000     0.00000000000000
 47     1.48288827539077     1.48288827539077     1.48288827539077
>>>>>>> e84099c (Update new central volumes and add script for consistency checks)
