CRYSTAL
PRIMVEC
<<<<<<< HEAD
 0.00000000000000 2.00072493183632 2.00072493183632
 2.00072493183632 0.00000000000000 2.00072493183632
 2.00072493183632 2.00072493183632 0.00000000000000
=======
 0.00000000000000 2.00072491751761 2.00072491751761
 2.00072491751761 0.00000000000000 2.00072491751761
 2.00072491751761 2.00072491751761 0.00000000000000
>>>>>>> 7cc294e (Central volumes for PBE Z=97-103, and PBEsol and LDA for Z=1-103)
PRIMCOORD
 1 1
 47     0.00000000000000     0.00000000000000     0.00000000000000
