CRYSTAL
PRIMVEC
<<<<<<< HEAD
 2.64692901235101 0.00000000000000 0.00000000000000
 0.00000000000000 2.64692901235101 0.00000000000000
 0.00000000000000 0.00000000000000 2.64692901235101
=======
 2.64692901162237 0.00000000000000 0.00000000000000
 0.00000000000000 2.64692901162237 0.00000000000000
 0.00000000000000 0.00000000000000 2.64692901162237
>>>>>>> 7cc294e (Central volumes for PBE Z=97-103, and PBEsol and LDA for Z=1-103)
PRIMCOORD
 1 1
 47     0.00000000000000     0.00000000000000     0.00000000000000
