CRYSTAL
PRIMVEC
<<<<<<< HEAD
 -1.59419538994242 1.59419538994242 1.59419538994242
 1.59419538994242 -1.59419538994242 1.59419538994242
 1.59419538994242 1.59419538994242 -1.59419538994242
=======
 -1.59419538240943 1.59419538240943 1.59419538240943
 1.59419538240943 -1.59419538240943 1.59419538240943
 1.59419538240943 1.59419538240943 -1.59419538240943
>>>>>>> 7cc294e (Central volumes for PBE Z=97-103, and PBEsol and LDA for Z=1-103)
PRIMCOORD
 1 1
 13     0.00000000000000     0.00000000000000     0.00000000000000
