CRYSTAL
PRIMVEC
<<<<<<< HEAD
 0.00000000000000 2.97419224705339 2.97419224705339
 2.97419224705339 0.00000000000000 2.97419224705339
 2.97419224705339 2.97419224705339 0.00000000000000
PRIMCOORD
 2 1
 13     0.00000000000000     0.00000000000000     0.00000000000000
 13     1.48709612352670     1.48709612352670     1.48709612352670
=======
 0.00000000000000 2.97419224332239 2.97419224332239
 2.97419224332239 0.00000000000000 2.97419224332239
 2.97419224332239 2.97419224332239 0.00000000000000
PRIMCOORD
 2 1
 13     0.00000000000000     0.00000000000000     0.00000000000000
 13     1.48709612166120     1.48709612166120     1.48709612166120
>>>>>>> 7cc294e (Central volumes for PBE Z=97-103, and PBEsol and LDA for Z=1-103)
