CRYSTAL
PRIMVEC
<<<<<<< HEAD
<<<<<<< HEAD
 -1.55430712001920 1.55430712001920 1.55430712001920
 1.55430712001920 -1.55430712001920 1.55430712001920
 1.55430712001920 1.55430712001920 -1.55430712001920
=======
 -1.55430711785590 1.55430711785590 1.55430711785590
 1.55430711785590 -1.55430711785590 1.55430711785590
 1.55430711785590 1.55430711785590 -1.55430711785590
>>>>>>> 7cc294e (Central volumes for PBE Z=97-103, and PBEsol and LDA for Z=1-103)
=======
 -1.55430712001920 1.55430712001920 1.55430712001920
 1.55430712001920 -1.55430712001920 1.55430712001920
 1.55430712001920 1.55430712001920 -1.55430712001920
>>>>>>> e84099c (Update new central volumes and add script for consistency checks)
PRIMCOORD
 1 1
 95     0.00000000000000     0.00000000000000     0.00000000000000
