CRYSTAL
PRIMVEC
<<<<<<< HEAD
<<<<<<< HEAD
 0.00000000000000 2.64091629864799 2.64091629864799
 2.64091629864799 0.00000000000000 2.64091629864799
 2.64091629864799 2.64091629864799 0.00000000000000
PRIMCOORD
 2 1
 95     0.00000000000000     0.00000000000000     0.00000000000000
 95     1.32045814932399     1.32045814932399     1.32045814932399
=======
 0.00000000000000 2.64091612916441 2.64091612916441
 2.64091612916441 0.00000000000000 2.64091612916441
 2.64091612916441 2.64091612916441 0.00000000000000
PRIMCOORD
 2 1
 95     0.00000000000000     0.00000000000000     0.00000000000000
 95     1.32045806458220     1.32045806458220     1.32045806458220
>>>>>>> 7cc294e (Central volumes for PBE Z=97-103, and PBEsol and LDA for Z=1-103)
=======
 0.00000000000000 2.64091629864799 2.64091629864799
 2.64091629864799 0.00000000000000 2.64091629864799
 2.64091629864799 2.64091629864799 0.00000000000000
PRIMCOORD
 2 1
 95     0.00000000000000     0.00000000000000     0.00000000000000
 95     1.32045814932399     1.32045814932399     1.32045814932399
>>>>>>> e84099c (Update new central volumes and add script for consistency checks)
