CRYSTAL
PRIMVEC
<<<<<<< HEAD
 0.00000000000000 1.99507449183030 1.99507449183030
 1.99507449183030 0.00000000000000 1.99507449183030
 1.99507449183030 1.99507449183030 0.00000000000000
=======
 0.00000000000000 1.99507448344934 1.99507448344934
 1.99507448344934 0.00000000000000 1.99507448344934
 1.99507448344934 1.99507448344934 0.00000000000000
>>>>>>> 7cc294e (Central volumes for PBE Z=97-103, and PBEsol and LDA for Z=1-103)
PRIMCOORD
 1 1
 95     0.00000000000000     0.00000000000000     0.00000000000000
