CRYSTAL
PRIMVEC
<<<<<<< HEAD
 2.46672862852173 0.00000000000000 0.00000000000000
 0.00000000000000 2.46672862852173 0.00000000000000
 0.00000000000000 0.00000000000000 2.46672862852173
=======
 2.46672860953313 0.00000000000000 0.00000000000000
 0.00000000000000 2.46672860953313 0.00000000000000
 0.00000000000000 0.00000000000000 2.46672860953313
>>>>>>> 7cc294e (Central volumes for PBE Z=97-103, and PBEsol and LDA for Z=1-103)
PRIMCOORD
 1 1
 95     0.00000000000000     0.00000000000000     0.00000000000000
