CRYSTAL
PRIMVEC
<<<<<<< HEAD
 -1.97376798630384 1.97376798630384 1.97376798630384
 1.97376798630384 -1.97376798630384 1.97376798630384
 1.97376798630384 1.97376798630384 -1.97376798630384
=======
 -1.97376798579178 1.97376798579178 1.97376798579178
 1.97376798579178 -1.97376798579178 1.97376798579178
 1.97376798579178 1.97376798579178 -1.97376798579178
>>>>>>> 7cc294e (Central volumes for PBE Z=97-103, and PBEsol and LDA for Z=1-103)
PRIMCOORD
 1 1
 18     0.00000000000000     0.00000000000000     0.00000000000000
