CRYSTAL
PRIMVEC
<<<<<<< HEAD
<<<<<<< HEAD
 0.00000000000000 3.91768577264553 3.91768577264553
 3.91768577264553 0.00000000000000 3.91768577264553
 3.91768577264553 3.91768577264553 0.00000000000000
PRIMCOORD
 2 1
 18     0.00000000000000     0.00000000000000     0.00000000000000
 18     1.95884288632277     1.95884288632277     1.95884288632277
=======
 0.00000000000000 3.91768577142828 3.91768577142828
 3.91768577142828 0.00000000000000 3.91768577142828
 3.91768577142828 3.91768577142828 0.00000000000000
PRIMCOORD
 2 1
 18     0.00000000000000     0.00000000000000     0.00000000000000
 18     1.95884288571414     1.95884288571414     1.95884288571414
>>>>>>> 7cc294e (Central volumes for PBE Z=97-103, and PBEsol and LDA for Z=1-103)
=======
 0.00000000000000 3.91768577264553 3.91768577264553
 3.91768577264553 0.00000000000000 3.91768577264553
 3.91768577264553 3.91768577264553 0.00000000000000
PRIMCOORD
 2 1
 18     0.00000000000000     0.00000000000000     0.00000000000000
 18     1.95884288632277     1.95884288632277     1.95884288632277
>>>>>>> e84099c (Update new central volumes and add script for consistency checks)
