CRYSTAL
PRIMVEC
<<<<<<< HEAD
<<<<<<< HEAD
 3.39989653154678 0.00000000000000 0.00000000000000
 0.00000000000000 3.39989653154678 0.00000000000000
 0.00000000000000 0.00000000000000 3.39989653154678
=======
 3.39989653058240 0.00000000000000 0.00000000000000
 0.00000000000000 3.39989653058240 0.00000000000000
 0.00000000000000 0.00000000000000 3.39989653058240
>>>>>>> 7cc294e (Central volumes for PBE Z=97-103, and PBEsol and LDA for Z=1-103)
=======
 3.39989653154678 0.00000000000000 0.00000000000000
 0.00000000000000 3.39989653154678 0.00000000000000
 0.00000000000000 0.00000000000000 3.39989653154678
>>>>>>> e84099c (Update new central volumes and add script for consistency checks)
PRIMCOORD
 1 1
 18     0.00000000000000     0.00000000000000     0.00000000000000
