CRYSTAL
PRIMVEC
<<<<<<< HEAD
<<<<<<< HEAD
 -1.64697129351760 1.64697129351760 1.64697129351760
 1.64697129351760 -1.64697129351760 1.64697129351760
 1.64697129351760 1.64697129351760 -1.64697129351760
=======
 -1.64697128843239 1.64697128843239 1.64697128843239
 1.64697128843239 -1.64697128843239 1.64697128843239
 1.64697128843239 1.64697128843239 -1.64697128843239
>>>>>>> 7cc294e (Central volumes for PBE Z=97-103, and PBEsol and LDA for Z=1-103)
=======
 -1.64697129351760 1.64697129351760 1.64697129351760
 1.64697129351760 -1.64697129351760 1.64697129351760
 1.64697129351760 1.64697129351760 -1.64697129351760
>>>>>>> e84099c (Update new central volumes and add script for consistency checks)
PRIMCOORD
 1 1
 33     0.00000000000000     0.00000000000000     0.00000000000000
