CRYSTAL
PRIMVEC
<<<<<<< HEAD
 0.00000000000000 2.98106696523415 2.98106696523415
 2.98106696523415 0.00000000000000 2.98106696523415
 2.98106696523415 2.98106696523415 0.00000000000000
PRIMCOORD
 2 1
 33     0.00000000000000     0.00000000000000     0.00000000000000
 33     1.49053348261707     1.49053348261707     1.49053348261707
=======
 0.00000000000000 2.98106693439807 2.98106693439807
 2.98106693439807 0.00000000000000 2.98106693439807
 2.98106693439807 2.98106693439807 0.00000000000000
PRIMCOORD
 2 1
 33     0.00000000000000     0.00000000000000     0.00000000000000
 33     1.49053346719904     1.49053346719904     1.49053346719904
>>>>>>> 7cc294e (Central volumes for PBE Z=97-103, and PBEsol and LDA for Z=1-103)
