CRYSTAL
PRIMVEC
<<<<<<< HEAD
<<<<<<< HEAD
 2.67485046799089 0.00000000000000 0.00000000000000
 0.00000000000000 2.67485046799089 0.00000000000000
 0.00000000000000 0.00000000000000 2.67485046799089
=======
 2.67485025066813 0.00000000000000 0.00000000000000
 0.00000000000000 2.67485025066813 0.00000000000000
 0.00000000000000 0.00000000000000 2.67485025066813
>>>>>>> 7cc294e (Central volumes for PBE Z=97-103, and PBEsol and LDA for Z=1-103)
=======
 2.67485046799089 0.00000000000000 0.00000000000000
 0.00000000000000 2.67485046799089 0.00000000000000
 0.00000000000000 0.00000000000000 2.67485046799089
>>>>>>> e84099c (Update new central volumes and add script for consistency checks)
PRIMCOORD
 1 1
 33     0.00000000000000     0.00000000000000     0.00000000000000
