CRYSTAL
PRIMVEC
<<<<<<< HEAD
<<<<<<< HEAD
 -2.07527365791522 2.07527365791522 2.07527365791522
 2.07527365791522 -2.07527365791522 2.07527365791522
 2.07527365791522 2.07527365791522 -2.07527365791522
=======
 -2.07527364306573 2.07527364306573 2.07527364306573
 2.07527364306573 -2.07527364306573 2.07527364306573
 2.07527364306573 2.07527364306573 -2.07527364306573
>>>>>>> 7cc294e (Central volumes for PBE Z=97-103, and PBEsol and LDA for Z=1-103)
=======
 -2.07527365791522 2.07527365791522 2.07527365791522
 2.07527365791522 -2.07527365791522 2.07527365791522
 2.07527365791522 2.07527365791522 -2.07527365791522
>>>>>>> e84099c (Update new central volumes and add script for consistency checks)
PRIMCOORD
 1 1
 85     0.00000000000000     0.00000000000000     0.00000000000000
