CRYSTAL
PRIMVEC
<<<<<<< HEAD
 0.00000000000000 3.91197471468794 3.91197471468794
 3.91197471468794 0.00000000000000 3.91197471468794
 3.91197471468794 3.91197471468794 0.00000000000000
PRIMCOORD
 2 1
 85     0.00000000000000     0.00000000000000     0.00000000000000
 85     1.95598735734397     1.95598735734397     1.95598735734397
=======
 0.00000000000000 3.91197467232625 3.91197467232625
 3.91197467232625 0.00000000000000 3.91197467232625
 3.91197467232625 3.91197467232625 0.00000000000000
PRIMCOORD
 2 1
 85     0.00000000000000     0.00000000000000     0.00000000000000
 85     1.95598733616313     1.95598733616313     1.95598733616313
>>>>>>> 7cc294e (Central volumes for PBE Z=97-103, and PBEsol and LDA for Z=1-103)
