CRYSTAL
PRIMVEC
<<<<<<< HEAD
 3.47140929318516 0.00000000000000 0.00000000000000
 0.00000000000000 3.47140929318516 0.00000000000000
 0.00000000000000 0.00000000000000 3.47140929318516
=======
 3.47140927650568 0.00000000000000 0.00000000000000
 0.00000000000000 3.47140927650568 0.00000000000000
 0.00000000000000 0.00000000000000 3.47140927650568
>>>>>>> 7cc294e (Central volumes for PBE Z=97-103, and PBEsol and LDA for Z=1-103)
PRIMCOORD
 1 1
 85     0.00000000000000     0.00000000000000     0.00000000000000
