CRYSTAL
PRIMVEC
<<<<<<< HEAD
<<<<<<< HEAD
 -1.60780085243309 1.60780085243309 1.60780085243309
 1.60780085243309 -1.60780085243309 1.60780085243309
 1.60780085243309 1.60780085243309 -1.60780085243309
=======
 -1.60780084415136 1.60780084415136 1.60780084415136
 1.60780084415136 -1.60780084415136 1.60780084415136
 1.60780084415136 1.60780084415136 -1.60780084415136
>>>>>>> 7cc294e (Central volumes for PBE Z=97-103, and PBEsol and LDA for Z=1-103)
=======
 -1.60780085243309 1.60780085243309 1.60780085243309
 1.60780085243309 -1.60780085243309 1.60780085243309
 1.60780085243309 1.60780085243309 -1.60780085243309
>>>>>>> e84099c (Update new central volumes and add script for consistency checks)
PRIMCOORD
 1 1
 79     0.00000000000000     0.00000000000000     0.00000000000000
