CRYSTAL
PRIMVEC
<<<<<<< HEAD
<<<<<<< HEAD
 0.00000000000000 2.97662430725359 2.97662430725359
 2.97662430725359 0.00000000000000 2.97662430725359
 2.97662430725359 2.97662430725359 0.00000000000000
PRIMCOORD
 2 1
 79     0.00000000000000     0.00000000000000     0.00000000000000
 79     1.48831215362680     1.48831215362680     1.48831215362680
=======
 0.00000000000000 2.97662429454524 2.97662429454524
 2.97662429454524 0.00000000000000 2.97662429454524
 2.97662429454524 2.97662429454524 0.00000000000000
PRIMCOORD
 2 1
 79     0.00000000000000     0.00000000000000     0.00000000000000
 79     1.48831214727262     1.48831214727262     1.48831214727262
>>>>>>> 7cc294e (Central volumes for PBE Z=97-103, and PBEsol and LDA for Z=1-103)
=======
 0.00000000000000 2.97662430725359 2.97662430725359
 2.97662430725359 0.00000000000000 2.97662430725359
 2.97662430725359 2.97662430725359 0.00000000000000
PRIMCOORD
 2 1
 79     0.00000000000000     0.00000000000000     0.00000000000000
 79     1.48831215362680     1.48831215362680     1.48831215362680
>>>>>>> e84099c (Update new central volumes and add script for consistency checks)
