CRYSTAL
PRIMVEC
<<<<<<< HEAD
 0.00000000000000 2.02440953331647 2.02440953331647
 2.02440953331647 0.00000000000000 2.02440953331647
 2.02440953331647 2.02440953331647 0.00000000000000
=======
 0.00000000000000 2.02440952186368 2.02440952186368
 2.02440952186368 0.00000000000000 2.02440952186368
 2.02440952186368 2.02440952186368 0.00000000000000
>>>>>>> 7cc294e (Central volumes for PBE Z=97-103, and PBEsol and LDA for Z=1-103)
PRIMCOORD
 1 1
 79     0.00000000000000     0.00000000000000     0.00000000000000
