CRYSTAL
PRIMVEC
<<<<<<< HEAD
<<<<<<< HEAD
 -1.14002675122065 1.14002675122065 1.14002675122065
 1.14002675122065 -1.14002675122065 1.14002675122065
 1.14002675122065 1.14002675122065 -1.14002675122065
=======
 -1.14002673348353 1.14002673348353 1.14002673348353
 1.14002673348353 -1.14002673348353 1.14002673348353
 1.14002673348353 1.14002673348353 -1.14002673348353
>>>>>>> 7cc294e (Central volumes for PBE Z=97-103, and PBEsol and LDA for Z=1-103)
=======
 -1.14002675122065 1.14002675122065 1.14002675122065
 1.14002675122065 -1.14002675122065 1.14002675122065
 1.14002675122065 1.14002675122065 -1.14002675122065
>>>>>>> e84099c (Update new central volumes and add script for consistency checks)
PRIMCOORD
 1 1
  5     0.00000000000000     0.00000000000000     0.00000000000000
