CRYSTAL
PRIMVEC
<<<<<<< HEAD
<<<<<<< HEAD
 0.00000000000000 2.00103721650356 2.00103721650356
 2.00103721650356 0.00000000000000 2.00103721650356
 2.00103721650356 2.00103721650356 0.00000000000000
PRIMCOORD
 2 1
  5     0.00000000000000     0.00000000000000     0.00000000000000
  5     1.00051860825178     1.00051860825178     1.00051860825178
=======
 0.00000000000000 2.00103721429889 2.00103721429889
 2.00103721429889 0.00000000000000 2.00103721429889
 2.00103721429889 2.00103721429889 0.00000000000000
PRIMCOORD
 2 1
  5     0.00000000000000     0.00000000000000     0.00000000000000
  5     1.00051860714944     1.00051860714944     1.00051860714944
>>>>>>> 7cc294e (Central volumes for PBE Z=97-103, and PBEsol and LDA for Z=1-103)
=======
 0.00000000000000 2.00103721650356 2.00103721650356
 2.00103721650356 0.00000000000000 2.00103721650356
 2.00103721650356 2.00103721650356 0.00000000000000
PRIMCOORD
 2 1
  5     0.00000000000000     0.00000000000000     0.00000000000000
  5     1.00051860825178     1.00051860825178     1.00051860825178
>>>>>>> e84099c (Update new central volumes and add script for consistency checks)
