CRYSTAL
PRIMVEC
<<<<<<< HEAD
 0.00000000000000 1.41764447014541 1.41764447014541
 1.41764447014541 0.00000000000000 1.41764447014541
 1.41764447014541 1.41764447014541 0.00000000000000
=======
 0.00000000000000 1.41764443158248 1.41764443158248
 1.41764443158248 0.00000000000000 1.41764443158248
 1.41764443158248 1.41764443158248 0.00000000000000
>>>>>>> 7cc294e (Central volumes for PBE Z=97-103, and PBEsol and LDA for Z=1-103)
PRIMCOORD
 1 1
  5     0.00000000000000     0.00000000000000     0.00000000000000
