CRYSTAL
PRIMVEC
<<<<<<< HEAD
<<<<<<< HEAD
 -2.37850962383214 2.37850962383214 2.37850962383214
 2.37850962383214 -2.37850962383214 2.37850962383214
 2.37850962383214 2.37850962383214 -2.37850962383214
=======
 -2.37850960982907 2.37850960982907 2.37850960982907
 2.37850960982907 -2.37850960982907 2.37850960982907
 2.37850960982907 2.37850960982907 -2.37850960982907
>>>>>>> 7cc294e (Central volumes for PBE Z=97-103, and PBEsol and LDA for Z=1-103)
=======
 -2.37850962383214 2.37850962383214 2.37850962383214
 2.37850962383214 -2.37850962383214 2.37850962383214
 2.37850962383214 2.37850962383214 -2.37850962383214
>>>>>>> e84099c (Update new central volumes and add script for consistency checks)
PRIMCOORD
 1 1
 56     0.00000000000000     0.00000000000000     0.00000000000000
