CRYSTAL
PRIMVEC
<<<<<<< HEAD
 0.00000000000000 3.64076408786480 3.64076408786480
 3.64076408786480 0.00000000000000 3.64076408786480
 3.64076408786480 3.64076408786480 0.00000000000000
PRIMCOORD
 2 1
 56     0.00000000000000     0.00000000000000     0.00000000000000
 56     1.82038204393240     1.82038204393240     1.82038204393240
=======
 0.00000000000000 3.64076399125152 3.64076399125152
 3.64076399125152 0.00000000000000 3.64076399125152
 3.64076399125152 3.64076399125152 0.00000000000000
PRIMCOORD
 2 1
 56     0.00000000000000     0.00000000000000     0.00000000000000
 56     1.82038199562576     1.82038199562576     1.82038199562576
>>>>>>> 7cc294e (Central volumes for PBE Z=97-103, and PBEsol and LDA for Z=1-103)
