CRYSTAL
PRIMVEC
<<<<<<< HEAD
 0.00000000000000 2.99243888993791 2.99243888993791
 2.99243888993791 0.00000000000000 2.99243888993791
 2.99243888993791 2.99243888993791 0.00000000000000
=======
 0.00000000000000 2.99243887571503 2.99243887571503
 2.99243887571503 0.00000000000000 2.99243887571503
 2.99243887571503 2.99243887571503 0.00000000000000
>>>>>>> 7cc294e (Central volumes for PBE Z=97-103, and PBEsol and LDA for Z=1-103)
PRIMCOORD
 1 1
 56     0.00000000000000     0.00000000000000     0.00000000000000
