CRYSTAL
PRIMVEC
<<<<<<< HEAD
 3.70755715032251 0.00000000000000 0.00000000000000
 0.00000000000000 3.70755715032251 0.00000000000000
 0.00000000000000 0.00000000000000 3.70755715032251
=======
 3.70755709094231 0.00000000000000 0.00000000000000
 0.00000000000000 3.70755709094231 0.00000000000000
 0.00000000000000 0.00000000000000 3.70755709094231
>>>>>>> 7cc294e (Central volumes for PBE Z=97-103, and PBEsol and LDA for Z=1-103)
PRIMCOORD
 1 1
 56     0.00000000000000     0.00000000000000     0.00000000000000
