CRYSTAL
PRIMVEC
<<<<<<< HEAD
<<<<<<< HEAD
 -1.23047552699749 1.23047552699749 1.23047552699749
 1.23047552699749 -1.23047552699749 1.23047552699749
 1.23047552699749 1.23047552699749 -1.23047552699749
=======
 -1.23047552307747 1.23047552307747 1.23047552307747
 1.23047552307747 -1.23047552307747 1.23047552307747
 1.23047552307747 1.23047552307747 -1.23047552307747
>>>>>>> 7cc294e (Central volumes for PBE Z=97-103, and PBEsol and LDA for Z=1-103)
=======
 -1.23047552699749 1.23047552699749 1.23047552699749
 1.23047552699749 -1.23047552699749 1.23047552699749
 1.23047552699749 1.23047552699749 -1.23047552699749
>>>>>>> e84099c (Update new central volumes and add script for consistency checks)
PRIMCOORD
 1 1
  4     0.00000000000000     0.00000000000000     0.00000000000000
