CRYSTAL
PRIMVEC
<<<<<<< HEAD
 0.00000000000000 2.41245390839583 2.41245390839583
 2.41245390839583 0.00000000000000 2.41245390839583
 2.41245390839583 2.41245390839583 0.00000000000000
PRIMCOORD
 2 1
  4     0.00000000000000     0.00000000000000     0.00000000000000
  4     1.20622695419792     1.20622695419792     1.20622695419792
=======
 0.00000000000000 2.41245388565251 2.41245388565251
 2.41245388565251 0.00000000000000 2.41245388565251
 2.41245388565251 2.41245388565251 0.00000000000000
PRIMCOORD
 2 1
  4     0.00000000000000     0.00000000000000     0.00000000000000
  4     1.20622694282626     1.20622694282626     1.20622694282626
>>>>>>> 7cc294e (Central volumes for PBE Z=97-103, and PBEsol and LDA for Z=1-103)
