CRYSTAL
PRIMVEC
<<<<<<< HEAD
 0.00000000000000 1.55301692472062 1.55301692472062
 1.55301692472062 0.00000000000000 1.55301692472062
 1.55301692472062 1.55301692472062 0.00000000000000
=======
 0.00000000000000 1.55301691846681 1.55301691846681
 1.55301691846681 0.00000000000000 1.55301691846681
 1.55301691846681 1.55301691846681 0.00000000000000
>>>>>>> 7cc294e (Central volumes for PBE Z=97-103, and PBEsol and LDA for Z=1-103)
PRIMCOORD
 1 1
  4     0.00000000000000     0.00000000000000     0.00000000000000
