CRYSTAL
PRIMVEC
<<<<<<< HEAD
 2.14079372592115 0.00000000000000 0.00000000000000
 0.00000000000000 2.14079372592115 0.00000000000000
 0.00000000000000 0.00000000000000 2.14079372592115
=======
 2.14079366736602 0.00000000000000 0.00000000000000
 0.00000000000000 2.14079366736602 0.00000000000000
 0.00000000000000 0.00000000000000 2.14079366736602
>>>>>>> 7cc294e (Central volumes for PBE Z=97-103, and PBEsol and LDA for Z=1-103)
PRIMCOORD
 1 1
  4     0.00000000000000     0.00000000000000     0.00000000000000
