CRYSTAL
PRIMVEC
<<<<<<< HEAD
 -1.94349473388571 1.94349473388571 1.94349473388571
 1.94349473388571 -1.94349473388571 1.94349473388571
 1.94349473388571 1.94349473388571 -1.94349473388571
=======
 -1.94349468987646 1.94349468987646 1.94349468987646
 1.94349468987646 -1.94349468987646 1.94349468987646
 1.94349468987646 1.94349468987646 -1.94349468987646
>>>>>>> 7cc294e (Central volumes for PBE Z=97-103, and PBEsol and LDA for Z=1-103)
PRIMCOORD
 1 1
 83     0.00000000000000     0.00000000000000     0.00000000000000
