CRYSTAL
PRIMVEC
<<<<<<< HEAD
<<<<<<< HEAD
 0.00000000000000 3.55133298386298 3.55133298386298
 3.55133298386298 0.00000000000000 3.55133298386298
 3.55133298386298 3.55133298386298 0.00000000000000
PRIMCOORD
 2 1
 83     0.00000000000000     0.00000000000000     0.00000000000000
 83     1.77566649193149     1.77566649193149     1.77566649193149
=======
 0.00000000000000 3.55133294945967 3.55133294945967
 3.55133294945967 0.00000000000000 3.55133294945967
 3.55133294945967 3.55133294945967 0.00000000000000
PRIMCOORD
 2 1
 83     0.00000000000000     0.00000000000000     0.00000000000000
 83     1.77566647472984     1.77566647472984     1.77566647472984
>>>>>>> 7cc294e (Central volumes for PBE Z=97-103, and PBEsol and LDA for Z=1-103)
=======
 0.00000000000000 3.55133298386298 3.55133298386298
 3.55133298386298 0.00000000000000 3.55133298386298
 3.55133298386298 3.55133298386298 0.00000000000000
PRIMCOORD
 2 1
 83     0.00000000000000     0.00000000000000     0.00000000000000
 83     1.77566649193149     1.77566649193149     1.77566649193149
>>>>>>> e84099c (Update new central volumes and add script for consistency checks)
