CRYSTAL
PRIMVEC
<<<<<<< HEAD
 0.00000000000000 2.45289726028965 2.45289726028965
 2.45289726028965 0.00000000000000 2.45289726028965
 2.45289726028965 2.45289726028965 0.00000000000000
=======
 0.00000000000000 2.45289724441551 2.45289724441551
 2.45289724441551 0.00000000000000 2.45289724441551
 2.45289724441551 2.45289724441551 0.00000000000000
>>>>>>> 7cc294e (Central volumes for PBE Z=97-103, and PBEsol and LDA for Z=1-103)
PRIMCOORD
 1 1
 83     0.00000000000000     0.00000000000000     0.00000000000000
