CRYSTAL
PRIMVEC
<<<<<<< HEAD
 3.19785384206718 0.00000000000000 0.00000000000000
 0.00000000000000 3.19785384206718 0.00000000000000
 0.00000000000000 0.00000000000000 3.19785384206718
=======
 3.19785349429325 0.00000000000000 0.00000000000000
 0.00000000000000 3.19785349429325 0.00000000000000
 0.00000000000000 0.00000000000000 3.19785349429325
>>>>>>> 7cc294e (Central volumes for PBE Z=97-103, and PBEsol and LDA for Z=1-103)
PRIMCOORD
 1 1
 83     0.00000000000000     0.00000000000000     0.00000000000000
