CRYSTAL
PRIMVEC
<<<<<<< HEAD
 0.00000000000000 2.64553786581374 2.64553786581374
 2.64553786581374 0.00000000000000 2.64553786581374
 2.64553786581374 2.64553786581374 0.00000000000000
PRIMCOORD
 2 1
 97     0.00000000000000     0.00000000000000     0.00000000000000
 97     1.32276893290687     1.32276893290687     1.32276893290687
=======
 0.00000000000000 2.64553748063877 2.64553748063877
 2.64553748063877 0.00000000000000 2.64553748063877
 2.64553748063877 2.64553748063877 0.00000000000000
PRIMCOORD
 2 1
 97     0.00000000000000     0.00000000000000     0.00000000000000
 97     1.32276874031939     1.32276874031939     1.32276874031939
>>>>>>> 7cc294e (Central volumes for PBE Z=97-103, and PBEsol and LDA for Z=1-103)
