CRYSTAL
PRIMVEC
<<<<<<< HEAD
 2.49318318284153 0.00000000000000 0.00000000000000
 0.00000000000000 2.49318318284153 0.00000000000000
 0.00000000000000 0.00000000000000 2.49318318284153
=======
 2.49318310619226 0.00000000000000 0.00000000000000
 0.00000000000000 2.49318310619226 0.00000000000000
 0.00000000000000 0.00000000000000 2.49318310619226
>>>>>>> 7cc294e (Central volumes for PBE Z=97-103, and PBEsol and LDA for Z=1-103)
PRIMCOORD
 1 1
 97     0.00000000000000     0.00000000000000     0.00000000000000
