CRYSTAL
PRIMVEC
<<<<<<< HEAD
 -1.79854603455913 1.79854603455913 1.79854603455913
 1.79854603455913 -1.79854603455913 1.79854603455913
 1.79854603455913 1.79854603455913 -1.79854603455913
=======
 -1.79854603428437 1.79854603428437 1.79854603428437
 1.79854603428437 -1.79854603428437 1.79854603428437
 1.79854603428437 1.79854603428437 -1.79854603428437
>>>>>>> 7cc294e (Central volumes for PBE Z=97-103, and PBEsol and LDA for Z=1-103)
PRIMCOORD
 1 1
 35     0.00000000000000     0.00000000000000     0.00000000000000
