CRYSTAL
PRIMVEC
<<<<<<< HEAD
<<<<<<< HEAD
 0.00000000000000 3.36089481921174 3.36089481921174
 3.36089481921174 0.00000000000000 3.36089481921174
 3.36089481921174 3.36089481921174 0.00000000000000
PRIMCOORD
 2 1
 35     0.00000000000000     0.00000000000000     0.00000000000000
 35     1.68044740960587     1.68044740960587     1.68044740960587
=======
 0.00000000000000 3.36089481868720 3.36089481868720
 3.36089481868720 0.00000000000000 3.36089481868720
 3.36089481868720 3.36089481868720 0.00000000000000
PRIMCOORD
 2 1
 35     0.00000000000000     0.00000000000000     0.00000000000000
 35     1.68044740934360     1.68044740934360     1.68044740934360
>>>>>>> 7cc294e (Central volumes for PBE Z=97-103, and PBEsol and LDA for Z=1-103)
=======
 0.00000000000000 3.36089481921174 3.36089481921174
 3.36089481921174 0.00000000000000 3.36089481921174
 3.36089481921174 3.36089481921174 0.00000000000000
PRIMCOORD
 2 1
 35     0.00000000000000     0.00000000000000     0.00000000000000
 35     1.68044740960587     1.68044740960587     1.68044740960587
>>>>>>> e84099c (Update new central volumes and add script for consistency checks)
