CRYSTAL
PRIMVEC
<<<<<<< HEAD
<<<<<<< HEAD
 2.98299074721631 0.00000000000000 0.00000000000000
 0.00000000000000 2.98299074721631 0.00000000000000
 0.00000000000000 0.00000000000000 2.98299074721631
=======
 2.98299071596450 0.00000000000000 0.00000000000000
 0.00000000000000 2.98299071596450 0.00000000000000
 0.00000000000000 0.00000000000000 2.98299071596450
>>>>>>> 7cc294e (Central volumes for PBE Z=97-103, and PBEsol and LDA for Z=1-103)
=======
 2.98299074721631 0.00000000000000 0.00000000000000
 0.00000000000000 2.98299074721631 0.00000000000000
 0.00000000000000 0.00000000000000 2.98299074721631
>>>>>>> e84099c (Update new central volumes and add script for consistency checks)
PRIMCOORD
 1 1
 35     0.00000000000000     0.00000000000000     0.00000000000000
