CRYSTAL
PRIMVEC
<<<<<<< HEAD
 0.00000000000000 1.76616512590005 1.76616512590005
 1.76616512590005 0.00000000000000 1.76616512590005
 1.76616512590005 1.76616512590005 0.00000000000000
PRIMCOORD
 2 1
  6     0.00000000000000     0.00000000000000     0.00000000000000
  6     0.88308256295003     0.88308256295003     0.88308256295003
=======
 0.00000000000000 1.76616511909842 1.76616511909842
 1.76616511909842 0.00000000000000 1.76616511909842
 1.76616511909842 1.76616511909842 0.00000000000000
PRIMCOORD
 2 1
  6     0.00000000000000     0.00000000000000     0.00000000000000
  6     0.88308255954921     0.88308255954921     0.88308255954921
>>>>>>> 7cc294e (Central volumes for PBE Z=97-103, and PBEsol and LDA for Z=1-103)
