CRYSTAL
PRIMVEC
<<<<<<< HEAD
<<<<<<< HEAD
 1.74925256755784 0.00000000000000 0.00000000000000
 0.00000000000000 1.74925256755784 0.00000000000000
 0.00000000000000 0.00000000000000 1.74925256755784
=======
 1.74925253701134 0.00000000000000 0.00000000000000
 0.00000000000000 1.74925253701134 0.00000000000000
 0.00000000000000 0.00000000000000 1.74925253701134
>>>>>>> 7cc294e (Central volumes for PBE Z=97-103, and PBEsol and LDA for Z=1-103)
=======
 1.74925256755784 0.00000000000000 0.00000000000000
 0.00000000000000 1.74925256755784 0.00000000000000
 0.00000000000000 0.00000000000000 1.74925256755784
>>>>>>> e84099c (Update new central volumes and add script for consistency checks)
PRIMCOORD
 1 1
  6     0.00000000000000     0.00000000000000     0.00000000000000
