CRYSTAL
PRIMVEC
<<<<<<< HEAD
<<<<<<< HEAD
 -2.10992940035341 2.10992940035341 2.10992940035341
 2.10992940035341 -2.10992940035341 2.10992940035341
 2.10992940035341 2.10992940035341 -2.10992940035341
=======
 -2.10992939988987 2.10992939988987 2.10992939988987
 2.10992939988987 -2.10992939988987 2.10992939988987
 2.10992939988987 2.10992939988987 -2.10992939988987
>>>>>>> 7cc294e (Central volumes for PBE Z=97-103, and PBEsol and LDA for Z=1-103)
=======
 -2.10992940035341 2.10992940035341 2.10992940035341
 2.10992940035341 -2.10992940035341 2.10992940035341
 2.10992940035341 2.10992940035341 -2.10992940035341
>>>>>>> e84099c (Update new central volumes and add script for consistency checks)
PRIMCOORD
 1 1
 20     0.00000000000000     0.00000000000000     0.00000000000000
