CRYSTAL
PRIMVEC
<<<<<<< HEAD
<<<<<<< HEAD
 0.00000000000000 4.13266610741064 4.13266610741064
 4.13266610741064 0.00000000000000 4.13266610741064
 4.13266610741064 4.13266610741064 0.00000000000000
PRIMCOORD
 2 1
 20     0.00000000000000     0.00000000000000     0.00000000000000
 20     2.06633305370532     2.06633305370532     2.06633305370532
=======
 0.00000000000000 4.13266610506717 4.13266610506717
 4.13266610506717 0.00000000000000 4.13266610506717
 4.13266610506717 4.13266610506717 0.00000000000000
PRIMCOORD
 2 1
 20     0.00000000000000     0.00000000000000     0.00000000000000
 20     2.06633305253358     2.06633305253358     2.06633305253358
>>>>>>> 7cc294e (Central volumes for PBE Z=97-103, and PBEsol and LDA for Z=1-103)
=======
 0.00000000000000 4.13266610741064 4.13266610741064
 4.13266610741064 0.00000000000000 4.13266610741064
 4.13266610741064 4.13266610741064 0.00000000000000
PRIMCOORD
 2 1
 20     0.00000000000000     0.00000000000000     0.00000000000000
 20     2.06633305370532     2.06633305370532     2.06633305370532
>>>>>>> e84099c (Update new central volumes and add script for consistency checks)
