CRYSTAL
PRIMVEC
<<<<<<< HEAD
 3.36205294639923 0.00000000000000 0.00000000000000
 0.00000000000000 3.36205294639923 0.00000000000000
 0.00000000000000 0.00000000000000 3.36205294639923
=======
 3.36205270775028 0.00000000000000 0.00000000000000
 0.00000000000000 3.36205270775028 0.00000000000000
 0.00000000000000 0.00000000000000 3.36205270775028
>>>>>>> 7cc294e (Central volumes for PBE Z=97-103, and PBEsol and LDA for Z=1-103)
PRIMCOORD
 1 1
 20     0.00000000000000     0.00000000000000     0.00000000000000
