CRYSTAL
PRIMVEC
<<<<<<< HEAD
 -1.71855094423976 1.71855094423976 1.71855094423976
 1.71855094423976 -1.71855094423976 1.71855094423976
 1.71855094423976 1.71855094423976 -1.71855094423976
=======
 -1.71855092236842 1.71855092236842 1.71855092236842
 1.71855092236842 -1.71855092236842 1.71855092236842
 1.71855092236842 1.71855092236842 -1.71855092236842
>>>>>>> 7cc294e (Central volumes for PBE Z=97-103, and PBEsol and LDA for Z=1-103)
PRIMCOORD
 1 1
 48     0.00000000000000     0.00000000000000     0.00000000000000
