CRYSTAL
PRIMVEC
<<<<<<< HEAD
<<<<<<< HEAD
 0.00000000000000 3.15670531620520 3.15670531620520
 3.15670531620520 0.00000000000000 3.15670531620520
 3.15670531620520 3.15670531620520 0.00000000000000
PRIMCOORD
 2 1
 48     0.00000000000000     0.00000000000000     0.00000000000000
 48     1.57835265810260     1.57835265810260     1.57835265810260
=======
 0.00000000000000 3.15670530220103 3.15670530220103
 3.15670530220103 0.00000000000000 3.15670530220103
 3.15670530220103 3.15670530220103 0.00000000000000
PRIMCOORD
 2 1
 48     0.00000000000000     0.00000000000000     0.00000000000000
 48     1.57835265110051     1.57835265110051     1.57835265110051
>>>>>>> 7cc294e (Central volumes for PBE Z=97-103, and PBEsol and LDA for Z=1-103)
=======
 0.00000000000000 3.15670531620520 3.15670531620520
 3.15670531620520 0.00000000000000 3.15670531620520
 3.15670531620520 3.15670531620520 0.00000000000000
PRIMCOORD
 2 1
 48     0.00000000000000     0.00000000000000     0.00000000000000
 48     1.57835265810260     1.57835265810260     1.57835265810260
>>>>>>> e84099c (Update new central volumes and add script for consistency checks)
