CRYSTAL
PRIMVEC
<<<<<<< HEAD
 2.85519445345165 0.00000000000000 0.00000000000000
 0.00000000000000 2.85519445345165 0.00000000000000
 0.00000000000000 0.00000000000000 2.85519445345165
=======
 2.85519440060954 0.00000000000000 0.00000000000000
 0.00000000000000 2.85519440060954 0.00000000000000
 0.00000000000000 0.00000000000000 2.85519440060954
>>>>>>> 7cc294e (Central volumes for PBE Z=97-103, and PBEsol and LDA for Z=1-103)
PRIMCOORD
 1 1
 48     0.00000000000000     0.00000000000000     0.00000000000000
