CRYSTAL
PRIMVEC
<<<<<<< HEAD
 -1.79818511561947 1.79818511561947 1.79818511561947
 1.79818511561947 -1.79818511561947 1.79818511561947
 1.79818511561947 1.79818511561947 -1.79818511561947
=======
 -1.79818511427070 1.79818511427070 1.79818511427070
 1.79818511427070 -1.79818511427070 1.79818511427070
 1.79818511427070 1.79818511427070 -1.79818511427070
>>>>>>> 7cc294e (Central volumes for PBE Z=97-103, and PBEsol and LDA for Z=1-103)
PRIMCOORD
 1 1
 58     0.00000000000000     0.00000000000000     0.00000000000000
