CRYSTAL
PRIMVEC
<<<<<<< HEAD
 0.00000000000000 3.04803410421988 3.04803410421988
 3.04803410421988 0.00000000000000 3.04803410421988
 3.04803410421988 3.04803410421988 0.00000000000000
PRIMCOORD
 2 1
 58     0.00000000000000     0.00000000000000     0.00000000000000
 58     1.52401705210994     1.52401705210994     1.52401705210994
=======
 0.00000000000000 3.04803409151647 3.04803409151647
 3.04803409151647 0.00000000000000 3.04803409151647
 3.04803409151647 3.04803409151647 0.00000000000000
PRIMCOORD
 2 1
 58     0.00000000000000     0.00000000000000     0.00000000000000
 58     1.52401704575824     1.52401704575824     1.52401704575824
>>>>>>> 7cc294e (Central volumes for PBE Z=97-103, and PBEsol and LDA for Z=1-103)
