CRYSTAL
PRIMVEC
<<<<<<< HEAD
 0.00000000000000 2.26007772290522 2.26007772290522
 2.26007772290522 0.00000000000000 2.26007772290522
 2.26007772290522 2.26007772290522 0.00000000000000
=======
 0.00000000000000 2.26007771640479 2.26007771640479
 2.26007771640479 0.00000000000000 2.26007771640479
 2.26007771640479 2.26007771640479 0.00000000000000
>>>>>>> 7cc294e (Central volumes for PBE Z=97-103, and PBEsol and LDA for Z=1-103)
PRIMCOORD
 1 1
 58     0.00000000000000     0.00000000000000     0.00000000000000
