CRYSTAL
PRIMVEC
<<<<<<< HEAD
 -1.59645598228115 1.59645598228115 1.59645598228115
 1.59645598228115 -1.59645598228115 1.59645598228115
 1.59645598228115 1.59645598228115 -1.59645598228115
=======
 -1.59645597571061 1.59645597571061 1.59645597571061
 1.59645597571061 -1.59645597571061 1.59645597571061
 1.59645597571061 1.59645597571061 -1.59645597571061
>>>>>>> 7cc294e (Central volumes for PBE Z=97-103, and PBEsol and LDA for Z=1-103)
PRIMCOORD
 1 1
 98     0.00000000000000     0.00000000000000     0.00000000000000
