CRYSTAL
PRIMVEC
<<<<<<< HEAD
 0.00000000000000 2.68230329141933 2.68230329141933
 2.68230329141933 0.00000000000000 2.68230329141933
 2.68230329141933 2.68230329141933 0.00000000000000
PRIMCOORD
 2 1
 98     0.00000000000000     0.00000000000000     0.00000000000000
 98     1.34115164570966     1.34115164570966     1.34115164570966
=======
 0.00000000000000 2.68230284371630 2.68230284371630
 2.68230284371630 0.00000000000000 2.68230284371630
 2.68230284371630 2.68230284371630 0.00000000000000
PRIMCOORD
 2 1
 98     0.00000000000000     0.00000000000000     0.00000000000000
 98     1.34115142185815     1.34115142185815     1.34115142185815
>>>>>>> 7cc294e (Central volumes for PBE Z=97-103, and PBEsol and LDA for Z=1-103)
