CRYSTAL
PRIMVEC
<<<<<<< HEAD
 2.54101453901326 0.00000000000000 0.00000000000000
 0.00000000000000 2.54101453901326 0.00000000000000
 0.00000000000000 0.00000000000000 2.54101453901326
=======
 2.54101452879887 0.00000000000000 0.00000000000000
 0.00000000000000 2.54101452879887 0.00000000000000
 0.00000000000000 0.00000000000000 2.54101452879887
>>>>>>> 7cc294e (Central volumes for PBE Z=97-103, and PBEsol and LDA for Z=1-103)
PRIMCOORD
 1 1
 98     0.00000000000000     0.00000000000000     0.00000000000000
