CRYSTAL
PRIMVEC
<<<<<<< HEAD
 0.00000000000000 3.09129968490691 3.09129968490691
 3.09129968490691 0.00000000000000 3.09129968490691
 3.09129968490691 3.09129968490691 0.00000000000000
PRIMCOORD
 2 1
 17     0.00000000000000     0.00000000000000     0.00000000000000
 17     1.54564984245346     1.54564984245346     1.54564984245346
=======
 0.00000000000000 3.09129968116707 3.09129968116707
 3.09129968116707 0.00000000000000 3.09129968116707
 3.09129968116707 3.09129968116707 0.00000000000000
PRIMCOORD
 2 1
 17     0.00000000000000     0.00000000000000     0.00000000000000
 17     1.54564984058353     1.54564984058353     1.54564984058353
>>>>>>> 7cc294e (Central volumes for PBE Z=97-103, and PBEsol and LDA for Z=1-103)
