CRYSTAL
PRIMVEC
<<<<<<< HEAD
 0.00000000000000 2.08439150382705 2.08439150382705
 2.08439150382705 0.00000000000000 2.08439150382705
 2.08439150382705 2.08439150382705 0.00000000000000
=======
 0.00000000000000 2.08439150103907 2.08439150103907
 2.08439150103907 0.00000000000000 2.08439150103907
 2.08439150103907 2.08439150103907 0.00000000000000
>>>>>>> 7cc294e (Central volumes for PBE Z=97-103, and PBEsol and LDA for Z=1-103)
PRIMCOORD
 1 1
 17     0.00000000000000     0.00000000000000     0.00000000000000
