CRYSTAL
PRIMVEC
<<<<<<< HEAD
 2.74547087372755 0.00000000000000 0.00000000000000
 0.00000000000000 2.74547087372755 0.00000000000000
 0.00000000000000 0.00000000000000 2.74547087372755
=======
 2.74547087161746 0.00000000000000 0.00000000000000
 0.00000000000000 2.74547087161746 0.00000000000000
 0.00000000000000 0.00000000000000 2.74547087161746
>>>>>>> 7cc294e (Central volumes for PBE Z=97-103, and PBEsol and LDA for Z=1-103)
PRIMCOORD
 1 1
 17     0.00000000000000     0.00000000000000     0.00000000000000
