CRYSTAL
PRIMVEC
<<<<<<< HEAD
 -1.55540214052578 1.55540214052578 1.55540214052578
 1.55540214052578 -1.55540214052578 1.55540214052578
 1.55540214052578 1.55540214052578 -1.55540214052578
=======
 -1.55540213653155 1.55540213653155 1.55540213653155
 1.55540213653155 -1.55540213653155 1.55540213653155
 1.55540213653155 1.55540213653155 -1.55540213653155
>>>>>>> 7cc294e (Central volumes for PBE Z=97-103, and PBEsol and LDA for Z=1-103)
PRIMCOORD
 1 1
 96     0.00000000000000     0.00000000000000     0.00000000000000
