CRYSTAL
PRIMVEC
<<<<<<< HEAD
<<<<<<< HEAD
 0.00000000000000 2.62896009454551 2.62896009454551
 2.62896009454551 0.00000000000000 2.62896009454551
 2.62896009454551 2.62896009454551 0.00000000000000
PRIMCOORD
 2 1
 96     0.00000000000000     0.00000000000000     0.00000000000000
 96     1.31448004727276     1.31448004727276     1.31448004727276
=======
 0.00000000000000 2.62895985869294 2.62895985869294
 2.62895985869294 0.00000000000000 2.62895985869294
 2.62895985869294 2.62895985869294 0.00000000000000
PRIMCOORD
 2 1
 96     0.00000000000000     0.00000000000000     0.00000000000000
 96     1.31447992934647     1.31447992934647     1.31447992934647
>>>>>>> 7cc294e (Central volumes for PBE Z=97-103, and PBEsol and LDA for Z=1-103)
=======
 0.00000000000000 2.62896009454551 2.62896009454551
 2.62896009454551 0.00000000000000 2.62896009454551
 2.62896009454551 2.62896009454551 0.00000000000000
PRIMCOORD
 2 1
 96     0.00000000000000     0.00000000000000     0.00000000000000
 96     1.31448004727276     1.31448004727276     1.31448004727276
>>>>>>> e84099c (Update new central volumes and add script for consistency checks)
