CRYSTAL
PRIMVEC
<<<<<<< HEAD
 0.00000000000000 1.99255078618821 1.99255078618821
 1.99255078618821 0.00000000000000 1.99255078618821
 1.99255078618821 1.99255078618821 0.00000000000000
=======
 0.00000000000000 1.99255077741698 1.99255077741698
 1.99255077741698 0.00000000000000 1.99255077741698
 1.99255077741698 1.99255077741698 0.00000000000000
>>>>>>> 7cc294e (Central volumes for PBE Z=97-103, and PBEsol and LDA for Z=1-103)
PRIMCOORD
 1 1
 96     0.00000000000000     0.00000000000000     0.00000000000000
