CRYSTAL
PRIMVEC
<<<<<<< HEAD
 2.46940565717090 0.00000000000000 0.00000000000000
 0.00000000000000 2.46940565717090 0.00000000000000
 0.00000000000000 0.00000000000000 2.46940565717090
=======
 2.46940564994114 0.00000000000000 0.00000000000000
 0.00000000000000 2.46940564994114 0.00000000000000
 0.00000000000000 0.00000000000000 2.46940564994114
>>>>>>> 7cc294e (Central volumes for PBE Z=97-103, and PBEsol and LDA for Z=1-103)
PRIMCOORD
 1 1
 96     0.00000000000000     0.00000000000000     0.00000000000000
