CRYSTAL
PRIMVEC
<<<<<<< HEAD
 -1.34795318736801 1.34795318736801 1.34795318736801
 1.34795318736801 -1.34795318736801 1.34795318736801
 1.34795318736801 1.34795318736801 -1.34795318736801
=======
 -1.34795318483850 1.34795318483850 1.34795318483850
 1.34795318483850 -1.34795318483850 1.34795318483850
 1.34795318483850 1.34795318483850 -1.34795318483850
>>>>>>> 7cc294e (Central volumes for PBE Z=97-103, and PBEsol and LDA for Z=1-103)
PRIMCOORD
 1 1
 27     0.00000000000000     0.00000000000000     0.00000000000000
