CRYSTAL
PRIMVEC
<<<<<<< HEAD
<<<<<<< HEAD
 0.00000000000000 2.39390608642497 2.39390608642497
 2.39390608642497 0.00000000000000 2.39390608642497
 2.39390608642497 2.39390608642497 0.00000000000000
PRIMCOORD
 2 1
 27     0.00000000000000     0.00000000000000     0.00000000000000
 27     1.19695304321248     1.19695304321248     1.19695304321248
=======
 0.00000000000000 2.39390598840584 2.39390598840584
 2.39390598840584 0.00000000000000 2.39390598840584
 2.39390598840584 2.39390598840584 0.00000000000000
PRIMCOORD
 2 1
 27     0.00000000000000     0.00000000000000     0.00000000000000
 27     1.19695299420292     1.19695299420292     1.19695299420292
>>>>>>> 7cc294e (Central volumes for PBE Z=97-103, and PBEsol and LDA for Z=1-103)
=======
 0.00000000000000 2.39390608642497 2.39390608642497
 2.39390608642497 0.00000000000000 2.39390608642497
 2.39390608642497 2.39390608642497 0.00000000000000
PRIMCOORD
 2 1
 27     0.00000000000000     0.00000000000000     0.00000000000000
 27     1.19695304321248     1.19695304321248     1.19695304321248
>>>>>>> e84099c (Update new central volumes and add script for consistency checks)
