CRYSTAL
PRIMVEC
<<<<<<< HEAD
 0.00000000000000 1.68626720308575 1.68626720308575
 1.68626720308575 0.00000000000000 1.68626720308575
 1.68626720308575 1.68626720308575 0.00000000000000
=======
 0.00000000000000 1.68626720032648 1.68626720032648
 1.68626720032648 0.00000000000000 1.68626720032648
 1.68626720032648 1.68626720032648 0.00000000000000
>>>>>>> 7cc294e (Central volumes for PBE Z=97-103, and PBEsol and LDA for Z=1-103)
PRIMCOORD
 1 1
 27     0.00000000000000     0.00000000000000     0.00000000000000
