CRYSTAL
PRIMVEC
<<<<<<< HEAD
<<<<<<< HEAD
 2.22275571312762 0.00000000000000 0.00000000000000
 0.00000000000000 2.22275571312762 0.00000000000000
 0.00000000000000 0.00000000000000 2.22275571312762
=======
 2.22275570378765 0.00000000000000 0.00000000000000
 0.00000000000000 2.22275570378765 0.00000000000000
 0.00000000000000 0.00000000000000 2.22275570378765
>>>>>>> 7cc294e (Central volumes for PBE Z=97-103, and PBEsol and LDA for Z=1-103)
=======
 2.22275571312762 0.00000000000000 0.00000000000000
 0.00000000000000 2.22275571312762 0.00000000000000
 0.00000000000000 0.00000000000000 2.22275571312762
>>>>>>> e84099c (Update new central volumes and add script for consistency checks)
PRIMCOORD
 1 1
 27     0.00000000000000     0.00000000000000     0.00000000000000
