CRYSTAL
PRIMVEC
<<<<<<< HEAD
<<<<<<< HEAD
 0.00000000000000 2.46955099305183 2.46955099305183
 2.46955099305183 0.00000000000000 2.46955099305183
 2.46955099305183 2.46955099305183 0.00000000000000
PRIMCOORD
 2 1
 24     0.00000000000000     0.00000000000000     0.00000000000000
 24     1.23477549652591     1.23477549652591     1.23477549652591
=======
 0.00000000000000 2.46955099080582 2.46955099080582
 2.46955099080582 0.00000000000000 2.46955099080582
 2.46955099080582 2.46955099080582 0.00000000000000
PRIMCOORD
 2 1
 24     0.00000000000000     0.00000000000000     0.00000000000000
 24     1.23477549540291     1.23477549540291     1.23477549540291
>>>>>>> 7cc294e (Central volumes for PBE Z=97-103, and PBEsol and LDA for Z=1-103)
=======
 0.00000000000000 2.46955099305183 2.46955099305183
 2.46955099305183 0.00000000000000 2.46955099305183
 2.46955099305183 2.46955099305183 0.00000000000000
PRIMCOORD
 2 1
 24     0.00000000000000     0.00000000000000     0.00000000000000
 24     1.23477549652591     1.23477549652591     1.23477549652591
>>>>>>> e84099c (Update new central volumes and add script for consistency checks)
