CRYSTAL
PRIMVEC
<<<<<<< HEAD
 0.00000000000000 1.77236690835396 1.77236690835396
 1.77236690835396 0.00000000000000 1.77236690835396
 1.77236690835396 1.77236690835396 0.00000000000000
=======
 0.00000000000000 1.77236690559728 1.77236690559728
 1.77236690559728 0.00000000000000 1.77236690559728
 1.77236690559728 1.77236690559728 0.00000000000000
>>>>>>> 7cc294e (Central volumes for PBE Z=97-103, and PBEsol and LDA for Z=1-103)
PRIMCOORD
 1 1
 24     0.00000000000000     0.00000000000000     0.00000000000000
