CRYSTAL
PRIMVEC
<<<<<<< HEAD
 2.28294550877504 0.00000000000000 0.00000000000000
 0.00000000000000 2.28294550877504 0.00000000000000
 0.00000000000000 0.00000000000000 2.28294550877504
=======
 2.28294548538594 0.00000000000000 0.00000000000000
 0.00000000000000 2.28294548538594 0.00000000000000
 0.00000000000000 0.00000000000000 2.28294548538594
>>>>>>> 7cc294e (Central volumes for PBE Z=97-103, and PBEsol and LDA for Z=1-103)
PRIMCOORD
 1 1
 24     0.00000000000000     0.00000000000000     0.00000000000000
