CRYSTAL
PRIMVEC
<<<<<<< HEAD
<<<<<<< HEAD
 -2.88282105490722 2.88282105490722 2.88282105490722
 2.88282105490722 -2.88282105490722 2.88282105490722
 2.88282105490722 2.88282105490722 -2.88282105490722
=======
 -2.88282054996392 2.88282054996392 2.88282054996392
 2.88282054996392 -2.88282054996392 2.88282054996392
 2.88282054996392 2.88282054996392 -2.88282054996392
>>>>>>> 7cc294e (Central volumes for PBE Z=97-103, and PBEsol and LDA for Z=1-103)
=======
 -2.88282105490722 2.88282105490722 2.88282105490722
 2.88282105490722 -2.88282105490722 2.88282105490722
 2.88282105490722 2.88282105490722 -2.88282105490722
>>>>>>> e84099c (Update new central volumes and add script for consistency checks)
PRIMCOORD
 1 1
 55     0.00000000000000     0.00000000000000     0.00000000000000
