CRYSTAL
PRIMVEC
<<<<<<< HEAD
 0.00000000000000 5.39645636545399 5.39645636545399
 5.39645636545399 0.00000000000000 5.39645636545399
 5.39645636545399 5.39645636545399 0.00000000000000
PRIMCOORD
 2 1
 55     0.00000000000000     0.00000000000000     0.00000000000000
 55     2.69822818272699     2.69822818272699     2.69822818272699
=======
 0.00000000000000 5.39645635888247 5.39645635888247
 5.39645635888247 0.00000000000000 5.39645635888247
 5.39645635888247 5.39645635888247 0.00000000000000
PRIMCOORD
 2 1
 55     0.00000000000000     0.00000000000000     0.00000000000000
 55     2.69822817944124     2.69822817944124     2.69822817944124
>>>>>>> 7cc294e (Central volumes for PBE Z=97-103, and PBEsol and LDA for Z=1-103)
