CRYSTAL
PRIMVEC
<<<<<<< HEAD
 0.00000000000000 3.64098667784785 3.64098667784785
 3.64098667784785 0.00000000000000 3.64098667784785
 3.64098667784785 3.64098667784785 0.00000000000000
=======
 0.00000000000000 3.64098647138670 3.64098647138670
 3.64098647138670 0.00000000000000 3.64098647138670
 3.64098647138670 3.64098647138670 0.00000000000000
>>>>>>> 7cc294e (Central volumes for PBE Z=97-103, and PBEsol and LDA for Z=1-103)
PRIMCOORD
 1 1
 55     0.00000000000000     0.00000000000000     0.00000000000000
