CRYSTAL
PRIMVEC
<<<<<<< HEAD
 -1.39802953319933 1.39802953319933 1.39802953319933
 1.39802953319933 -1.39802953319933 1.39802953319933
 1.39802953319933 1.39802953319933 -1.39802953319933
=======
 -1.39802953064011 1.39802953064011 1.39802953064011
 1.39802953064011 -1.39802953064011 1.39802953064011
 1.39802953064011 1.39802953064011 -1.39802953064011
>>>>>>> 7cc294e (Central volumes for PBE Z=97-103, and PBEsol and LDA for Z=1-103)
PRIMCOORD
 1 1
 29     0.00000000000000     0.00000000000000     0.00000000000000
