CRYSTAL
PRIMVEC
<<<<<<< HEAD
 0.00000000000000 2.57497196498928 2.57497196498928
 2.57497196498928 0.00000000000000 2.57497196498928
 2.57497196498928 2.57497196498928 0.00000000000000
PRIMCOORD
 2 1
 29     0.00000000000000     0.00000000000000     0.00000000000000
 29     1.28748598249464     1.28748598249464     1.28748598249464
=======
 0.00000000000000 2.57497192920214 2.57497192920214
 2.57497192920214 0.00000000000000 2.57497192920214
 2.57497192920214 2.57497192920214 0.00000000000000
PRIMCOORD
 2 1
 29     0.00000000000000     0.00000000000000     0.00000000000000
 29     1.28748596460107     1.28748596460107     1.28748596460107
>>>>>>> 7cc294e (Central volumes for PBE Z=97-103, and PBEsol and LDA for Z=1-103)
