CRYSTAL
PRIMVEC
<<<<<<< HEAD
 0.00000000000000 1.75899512754905 1.75899512754905
 1.75899512754905 0.00000000000000 1.75899512754905
 1.75899512754905 1.75899512754905 0.00000000000000
=======
 0.00000000000000 1.75899512732646 1.75899512732646
 1.75899512732646 0.00000000000000 1.75899512732646
 1.75899512732646 1.75899512732646 0.00000000000000
>>>>>>> 7cc294e (Central volumes for PBE Z=97-103, and PBEsol and LDA for Z=1-103)
PRIMCOORD
 1 1
 29     0.00000000000000     0.00000000000000     0.00000000000000
