CRYSTAL
PRIMVEC
<<<<<<< HEAD
<<<<<<< HEAD
 2.32703648425302 0.00000000000000 0.00000000000000
 0.00000000000000 2.32703648425302 0.00000000000000
 0.00000000000000 0.00000000000000 2.32703648425302
=======
 2.32703648187558 0.00000000000000 0.00000000000000
 0.00000000000000 2.32703648187558 0.00000000000000
 0.00000000000000 0.00000000000000 2.32703648187558
>>>>>>> 7cc294e (Central volumes for PBE Z=97-103, and PBEsol and LDA for Z=1-103)
=======
 2.32703648425302 0.00000000000000 0.00000000000000
 0.00000000000000 2.32703648425302 0.00000000000000
 0.00000000000000 0.00000000000000 2.32703648425302
>>>>>>> e84099c (Update new central volumes and add script for consistency checks)
PRIMCOORD
 1 1
 29     0.00000000000000     0.00000000000000     0.00000000000000
