CRYSTAL
PRIMVEC
<<<<<<< HEAD
 2.32703648425302 0.00000000000000 0.00000000000000
 0.00000000000000 2.32703648425302 0.00000000000000
 0.00000000000000 0.00000000000000 2.32703648425302
=======
 2.32703648187558 0.00000000000000 0.00000000000000
 0.00000000000000 2.32703648187558 0.00000000000000
 0.00000000000000 0.00000000000000 2.32703648187558
>>>>>>> 7cc294e (Central volumes for PBE Z=97-103, and PBEsol and LDA for Z=1-103)
PRIMCOORD
 1 1
 29     0.00000000000000     0.00000000000000     0.00000000000000
