CRYSTAL
PRIMVEC
<<<<<<< HEAD
 0.00000000000000 2.71471902237078 2.71471902237078
 2.71471902237078 0.00000000000000 2.71471902237078
 2.71471902237078 2.71471902237078 0.00000000000000
PRIMCOORD
 2 1
 66     0.00000000000000     0.00000000000000     0.00000000000000
 66     1.35735951118539     1.35735951118539     1.35735951118539
=======
 0.00000000000000 2.71471896468534 2.71471896468534
 2.71471896468534 0.00000000000000 2.71471896468534
 2.71471896468534 2.71471896468534 0.00000000000000
PRIMCOORD
 2 1
 66     0.00000000000000     0.00000000000000     0.00000000000000
 66     1.35735948234267     1.35735948234267     1.35735948234267
>>>>>>> 7cc294e (Central volumes for PBE Z=97-103, and PBEsol and LDA for Z=1-103)
