CRYSTAL
PRIMVEC
<<<<<<< HEAD
<<<<<<< HEAD
 0.00000000000000 2.30716911088348 2.30716911088348
 2.30716911088348 0.00000000000000 2.30716911088348
 2.30716911088348 2.30716911088348 0.00000000000000
=======
 0.00000000000000 2.30716910532646 2.30716910532646
 2.30716910532646 0.00000000000000 2.30716910532646
 2.30716910532646 2.30716910532646 0.00000000000000
>>>>>>> 7cc294e (Central volumes for PBE Z=97-103, and PBEsol and LDA for Z=1-103)
=======
 0.00000000000000 2.30716911088348 2.30716911088348
 2.30716911088348 0.00000000000000 2.30716911088348
 2.30716911088348 2.30716911088348 0.00000000000000
>>>>>>> e84099c (Update new central volumes and add script for consistency checks)
PRIMCOORD
 1 1
 66     0.00000000000000     0.00000000000000     0.00000000000000
