CRYSTAL
PRIMVEC
<<<<<<< HEAD
<<<<<<< HEAD
 2.72902208197503 0.00000000000000 0.00000000000000
 0.00000000000000 2.72902208197503 0.00000000000000
 0.00000000000000 0.00000000000000 2.72902208197503
=======
 2.72902207742294 0.00000000000000 0.00000000000000
 0.00000000000000 2.72902207742294 0.00000000000000
 0.00000000000000 0.00000000000000 2.72902207742294
>>>>>>> 7cc294e (Central volumes for PBE Z=97-103, and PBEsol and LDA for Z=1-103)
=======
 2.72902208197503 0.00000000000000 0.00000000000000
 0.00000000000000 2.72902208197503 0.00000000000000
 0.00000000000000 0.00000000000000 2.72902208197503
>>>>>>> e84099c (Update new central volumes and add script for consistency checks)
PRIMCOORD
 1 1
 66     0.00000000000000     0.00000000000000     0.00000000000000
