CRYSTAL
PRIMVEC
<<<<<<< HEAD
 -1.90624495653283 1.90624495653283 1.90624495653283
 1.90624495653283 -1.90624495653283 1.90624495653283
 1.90624495653283 1.90624495653283 -1.90624495653283
=======
 -1.90624495501037 1.90624495501037 1.90624495501037
 1.90624495501037 -1.90624495501037 1.90624495501037
 1.90624495501037 1.90624495501037 -1.90624495501037
>>>>>>> 7cc294e (Central volumes for PBE Z=97-103, and PBEsol and LDA for Z=1-103)
PRIMCOORD
 1 1
 68     0.00000000000000     0.00000000000000     0.00000000000000
