CRYSTAL
PRIMVEC
<<<<<<< HEAD
<<<<<<< HEAD
 0.00000000000000 2.83091630411870 2.83091630411870
 2.83091630411870 0.00000000000000 2.83091630411870
 2.83091630411870 2.83091630411870 0.00000000000000
PRIMCOORD
 2 1
 68     0.00000000000000     0.00000000000000     0.00000000000000
 68     1.41545815205935     1.41545815205935     1.41545815205935
=======
 0.00000000000000 2.83091628476091 2.83091628476091
 2.83091628476091 0.00000000000000 2.83091628476091
 2.83091628476091 2.83091628476091 0.00000000000000
PRIMCOORD
 2 1
 68     0.00000000000000     0.00000000000000     0.00000000000000
 68     1.41545814238046     1.41545814238046     1.41545814238046
>>>>>>> 7cc294e (Central volumes for PBE Z=97-103, and PBEsol and LDA for Z=1-103)
=======
 0.00000000000000 2.83091630411870 2.83091630411870
 2.83091630411870 0.00000000000000 2.83091630411870
 2.83091630411870 2.83091630411870 0.00000000000000
PRIMCOORD
 2 1
 68     0.00000000000000     0.00000000000000     0.00000000000000
 68     1.41545815205935     1.41545815205935     1.41545815205935
>>>>>>> e84099c (Update new central volumes and add script for consistency checks)
