CRYSTAL
PRIMVEC
<<<<<<< HEAD
<<<<<<< HEAD
 3.00892006385519 0.00000000000000 0.00000000000000
 0.00000000000000 3.00892006385519 0.00000000000000
 0.00000000000000 0.00000000000000 3.00892006385519
=======
 3.00892005014149 0.00000000000000 0.00000000000000
 0.00000000000000 3.00892005014149 0.00000000000000
 0.00000000000000 0.00000000000000 3.00892005014149
>>>>>>> 7cc294e (Central volumes for PBE Z=97-103, and PBEsol and LDA for Z=1-103)
=======
 3.00892006385519 0.00000000000000 0.00000000000000
 0.00000000000000 3.00892006385519 0.00000000000000
 0.00000000000000 0.00000000000000 3.00892006385519
>>>>>>> e84099c (Update new central volumes and add script for consistency checks)
PRIMCOORD
 1 1
 68     0.00000000000000     0.00000000000000     0.00000000000000
