CRYSTAL
PRIMVEC
<<<<<<< HEAD
<<<<<<< HEAD
 -1.64524397640781 1.64524397640781 1.64524397640781
 1.64524397640781 -1.64524397640781 1.64524397640781
 1.64524397640781 1.64524397640781 -1.64524397640781
=======
 -1.64524389471726 1.64524389471726 1.64524389471726
 1.64524389471726 -1.64524389471726 1.64524389471726
 1.64524389471726 1.64524389471726 -1.64524389471726
>>>>>>> 7cc294e (Central volumes for PBE Z=97-103, and PBEsol and LDA for Z=1-103)
=======
 -1.64524397640781 1.64524397640781 1.64524397640781
 1.64524397640781 -1.64524397640781 1.64524397640781
 1.64524397640781 1.64524397640781 -1.64524397640781
>>>>>>> e84099c (Update new central volumes and add script for consistency checks)
PRIMCOORD
 1 1
 99     0.00000000000000     0.00000000000000     0.00000000000000
