CRYSTAL
PRIMVEC
<<<<<<< HEAD
 0.00000000000000 2.75439317424869 2.75439317424869
 2.75439317424869 0.00000000000000 2.75439317424869
 2.75439317424869 2.75439317424869 0.00000000000000
PRIMCOORD
 2 1
 99     0.00000000000000     0.00000000000000     0.00000000000000
 99     1.37719658712435     1.37719658712435     1.37719658712435
=======
 0.00000000000000 2.75439305284797 2.75439305284797
 2.75439305284797 0.00000000000000 2.75439305284797
 2.75439305284797 2.75439305284797 0.00000000000000
PRIMCOORD
 2 1
 99     0.00000000000000     0.00000000000000     0.00000000000000
 99     1.37719652642399     1.37719652642399     1.37719652642399
>>>>>>> 7cc294e (Central volumes for PBE Z=97-103, and PBEsol and LDA for Z=1-103)
