CRYSTAL
PRIMVEC
<<<<<<< HEAD
 0.00000000000000 2.08992708584077 2.08992708584077
 2.08992708584077 0.00000000000000 2.08992708584077
 2.08992708584077 2.08992708584077 0.00000000000000
=======
 0.00000000000000 2.08992698818097 2.08992698818097
 2.08992698818097 0.00000000000000 2.08992698818097
 2.08992698818097 2.08992698818097 0.00000000000000
>>>>>>> 7cc294e (Central volumes for PBE Z=97-103, and PBEsol and LDA for Z=1-103)
PRIMCOORD
 1 1
 99     0.00000000000000     0.00000000000000     0.00000000000000
