CRYSTAL
PRIMVEC
<<<<<<< HEAD
 2.61261916582944 0.00000000000000 0.00000000000000
 0.00000000000000 2.61261916582944 0.00000000000000
 0.00000000000000 0.00000000000000 2.61261916582944
=======
 2.61261916539735 0.00000000000000 0.00000000000000
 0.00000000000000 2.61261916539735 0.00000000000000
 0.00000000000000 0.00000000000000 2.61261916539735
>>>>>>> 7cc294e (Central volumes for PBE Z=97-103, and PBEsol and LDA for Z=1-103)
PRIMCOORD
 1 1
 99     0.00000000000000     0.00000000000000     0.00000000000000
