CRYSTAL
PRIMVEC
<<<<<<< HEAD
<<<<<<< HEAD
 -1.61124133656256 1.61124133656256 1.61124133656256
 1.61124133656256 -1.61124133656256 1.61124133656256
 1.61124133656256 1.61124133656256 -1.61124133656256
=======
 -1.61124130388351 1.61124130388351 1.61124130388351
 1.61124130388351 -1.61124130388351 1.61124130388351
 1.61124130388351 1.61124130388351 -1.61124130388351
>>>>>>> 7cc294e (Central volumes for PBE Z=97-103, and PBEsol and LDA for Z=1-103)
=======
 -1.61124133656256 1.61124133656256 1.61124133656256
 1.61124133656256 -1.61124133656256 1.61124133656256
 1.61124133656256 1.61124133656256 -1.61124133656256
>>>>>>> e84099c (Update new central volumes and add script for consistency checks)
PRIMCOORD
 1 1
 63     0.00000000000000     0.00000000000000     0.00000000000000
