CRYSTAL
PRIMVEC
<<<<<<< HEAD
<<<<<<< HEAD
 0.00000000000000 2.66809468405205 2.66809468405205
 2.66809468405205 0.00000000000000 2.66809468405205
 2.66809468405205 2.66809468405205 0.00000000000000
PRIMCOORD
 2 1
 63     0.00000000000000     0.00000000000000     0.00000000000000
 63     1.33404734202603     1.33404734202603     1.33404734202603
=======
 0.00000000000000 2.66809460187581 2.66809460187581
 2.66809460187581 0.00000000000000 2.66809460187581
 2.66809460187581 2.66809460187581 0.00000000000000
PRIMCOORD
 2 1
 63     0.00000000000000     0.00000000000000     0.00000000000000
 63     1.33404730093790     1.33404730093790     1.33404730093790
>>>>>>> 7cc294e (Central volumes for PBE Z=97-103, and PBEsol and LDA for Z=1-103)
=======
 0.00000000000000 2.66809468405205 2.66809468405205
 2.66809468405205 0.00000000000000 2.66809468405205
 2.66809468405205 2.66809468405205 0.00000000000000
PRIMCOORD
 2 1
 63     0.00000000000000     0.00000000000000     0.00000000000000
 63     1.33404734202603     1.33404734202603     1.33404734202603
>>>>>>> e84099c (Update new central volumes and add script for consistency checks)
