CRYSTAL
PRIMVEC
<<<<<<< HEAD
 2.49055979515408 0.00000000000000 0.00000000000000
 0.00000000000000 2.49055979515408 0.00000000000000
 0.00000000000000 0.00000000000000 2.49055979515408
=======
 2.49055978507833 0.00000000000000 0.00000000000000
 0.00000000000000 2.49055978507833 0.00000000000000
 0.00000000000000 0.00000000000000 2.49055978507833
>>>>>>> 7cc294e (Central volumes for PBE Z=97-103, and PBEsol and LDA for Z=1-103)
PRIMCOORD
 1 1
 63     0.00000000000000     0.00000000000000     0.00000000000000
