CRYSTAL
PRIMVEC
<<<<<<< HEAD
 -1.28090262443385 1.28090262443385 1.28090262443385
 1.28090262443385 -1.28090262443385 1.28090262443385
 1.28090262443385 1.28090262443385 -1.28090262443385
=======
 -1.28090262414991 1.28090262414991 1.28090262414991
 1.28090262414991 -1.28090262414991 1.28090262414991
 1.28090262414991 1.28090262414991 -1.28090262414991
>>>>>>> 7cc294e (Central volumes for PBE Z=97-103, and PBEsol and LDA for Z=1-103)
PRIMCOORD
 1 1
  9     0.00000000000000     0.00000000000000     0.00000000000000
