CRYSTAL
PRIMVEC
<<<<<<< HEAD
 0.00000000000000 2.32544789477948 2.32544789477948
 2.32544789477948 0.00000000000000 2.32544789477948
 2.32544789477948 2.32544789477948 0.00000000000000
PRIMCOORD
 2 1
  9     0.00000000000000     0.00000000000000     0.00000000000000
  9     1.16272394738974     1.16272394738974     1.16272394738974
=======
 0.00000000000000 2.32544789450110 2.32544789450110
 2.32544789450110 0.00000000000000 2.32544789450110
 2.32544789450110 2.32544789450110 0.00000000000000
PRIMCOORD
 2 1
  9     0.00000000000000     0.00000000000000     0.00000000000000
  9     1.16272394725055     1.16272394725055     1.16272394725055
>>>>>>> 7cc294e (Central volumes for PBE Z=97-103, and PBEsol and LDA for Z=1-103)
