CRYSTAL
PRIMVEC
<<<<<<< HEAD
 0.00000000000000 1.61367681911115 1.61367681911115
 1.61367681911115 0.00000000000000 1.61367681911115
 1.61367681911115 1.61367681911115 0.00000000000000
=======
 0.00000000000000 1.61367681834993 1.61367681834993
 1.61367681834993 0.00000000000000 1.61367681834993
 1.61367681834993 1.61367681834993 0.00000000000000
>>>>>>> 7cc294e (Central volumes for PBE Z=97-103, and PBEsol and LDA for Z=1-103)
PRIMCOORD
 1 1
  9     0.00000000000000     0.00000000000000     0.00000000000000
