CRYSTAL
PRIMVEC
<<<<<<< HEAD
<<<<<<< HEAD
 2.08304420108434 0.00000000000000 0.00000000000000
 0.00000000000000 2.08304420108434 0.00000000000000
 0.00000000000000 0.00000000000000 2.08304420108434
=======
 2.08304420100777 0.00000000000000 0.00000000000000
 0.00000000000000 2.08304420100777 0.00000000000000
 0.00000000000000 0.00000000000000 2.08304420100777
>>>>>>> 7cc294e (Central volumes for PBE Z=97-103, and PBEsol and LDA for Z=1-103)
=======
 2.08304420108434 0.00000000000000 0.00000000000000
 0.00000000000000 2.08304420108434 0.00000000000000
 0.00000000000000 0.00000000000000 2.08304420108434
>>>>>>> e84099c (Update new central volumes and add script for consistency checks)
PRIMCOORD
 1 1
  9     0.00000000000000     0.00000000000000     0.00000000000000
