CRYSTAL
PRIMVEC
<<<<<<< HEAD
 -1.34871073771071 1.34871073771071 1.34871073771071
 1.34871073771071 -1.34871073771071 1.34871073771071
 1.34871073771071 1.34871073771071 -1.34871073771071
=======
 -1.34871073230578 1.34871073230578 1.34871073230578
 1.34871073230578 -1.34871073230578 1.34871073230578
 1.34871073230578 1.34871073230578 -1.34871073230578
>>>>>>> 7cc294e (Central volumes for PBE Z=97-103, and PBEsol and LDA for Z=1-103)
PRIMCOORD
 1 1
 26     0.00000000000000     0.00000000000000     0.00000000000000
