CRYSTAL
PRIMVEC
<<<<<<< HEAD
 0.00000000000000 2.37671574462486 2.37671574462486
 2.37671574462486 0.00000000000000 2.37671574462486
 2.37671574462486 2.37671574462486 0.00000000000000
PRIMCOORD
 2 1
 26     0.00000000000000     0.00000000000000     0.00000000000000
 26     1.18835787231243     1.18835787231243     1.18835787231243
=======
 0.00000000000000 2.37671568870557 2.37671568870557
 2.37671568870557 0.00000000000000 2.37671568870557
 2.37671568870557 2.37671568870557 0.00000000000000
PRIMCOORD
 2 1
 26     0.00000000000000     0.00000000000000     0.00000000000000
 26     1.18835784435279     1.18835784435279     1.18835784435279
>>>>>>> 7cc294e (Central volumes for PBE Z=97-103, and PBEsol and LDA for Z=1-103)
