CRYSTAL
PRIMVEC
<<<<<<< HEAD
 0.00000000000000 1.68689394988701 1.68689394988701
 1.68689394988701 0.00000000000000 1.68689394988701
 1.68689394988701 1.68689394988701 0.00000000000000
=======
 0.00000000000000 1.68689394590282 1.68689394590282
 1.68689394590282 0.00000000000000 1.68689394590282
 1.68689394590282 1.68689394590282 0.00000000000000
>>>>>>> 7cc294e (Central volumes for PBE Z=97-103, and PBEsol and LDA for Z=1-103)
PRIMCOORD
 1 1
 26     0.00000000000000     0.00000000000000     0.00000000000000
