CRYSTAL
PRIMVEC
<<<<<<< HEAD
 2.21144191758030 0.00000000000000 0.00000000000000
 0.00000000000000 2.21144191758030 0.00000000000000
 0.00000000000000 0.00000000000000 2.21144191758030
=======
 2.21144189904528 0.00000000000000 0.00000000000000
 0.00000000000000 2.21144189904528 0.00000000000000
 0.00000000000000 0.00000000000000 2.21144189904528
>>>>>>> 7cc294e (Central volumes for PBE Z=97-103, and PBEsol and LDA for Z=1-103)
PRIMCOORD
 1 1
 26     0.00000000000000     0.00000000000000     0.00000000000000
