CRYSTAL
PRIMVEC
<<<<<<< HEAD
<<<<<<< HEAD
 -1.72352735570079 1.72352735570079 1.72352735570079
 1.72352735570079 -1.72352735570079 1.72352735570079
 1.72352735570079 1.72352735570079 -1.72352735570079
=======
 -1.72352703690300 1.72352703690300 1.72352703690300
 1.72352703690300 -1.72352703690300 1.72352703690300
 1.72352703690300 1.72352703690300 -1.72352703690300
>>>>>>> 7cc294e (Central volumes for PBE Z=97-103, and PBEsol and LDA for Z=1-103)
=======
 -1.72352735570079 1.72352735570079 1.72352735570079
 1.72352735570079 -1.72352735570079 1.72352735570079
 1.72352735570079 1.72352735570079 -1.72352735570079
>>>>>>> e84099c (Update new central volumes and add script for consistency checks)
PRIMCOORD
 1 1
 100     0.00000000000000     0.00000000000000     0.00000000000000
