CRYSTAL
PRIMVEC
<<<<<<< HEAD
<<<<<<< HEAD
 0.00000000000000 2.88861330555759 2.88861330555759
 2.88861330555759 0.00000000000000 2.88861330555759
 2.88861330555759 2.88861330555759 0.00000000000000
PRIMCOORD
 2 1
 100     0.00000000000000     0.00000000000000     0.00000000000000
 100     1.44430665277880     1.44430665277880     1.44430665277880
=======
 0.00000000000000 2.88861324643636 2.88861324643636
 2.88861324643636 0.00000000000000 2.88861324643636
 2.88861324643636 2.88861324643636 0.00000000000000
PRIMCOORD
 2 1
 100     0.00000000000000     0.00000000000000     0.00000000000000
 100     1.44430662321818     1.44430662321818     1.44430662321818
>>>>>>> 7cc294e (Central volumes for PBE Z=97-103, and PBEsol and LDA for Z=1-103)
=======
 0.00000000000000 2.88861330555759 2.88861330555759
 2.88861330555759 0.00000000000000 2.88861330555759
 2.88861330555759 2.88861330555759 0.00000000000000
PRIMCOORD
 2 1
 100     0.00000000000000     0.00000000000000     0.00000000000000
 100     1.44430665277880     1.44430665277880     1.44430665277880
>>>>>>> e84099c (Update new central volumes and add script for consistency checks)
