CRYSTAL
PRIMVEC
<<<<<<< HEAD
 0.00000000000000 2.17992675829443 2.17992675829443
 2.17992675829443 0.00000000000000 2.17992675829443
 2.17992675829443 2.17992675829443 0.00000000000000
=======
 0.00000000000000 2.17992634008283 2.17992634008283
 2.17992634008283 0.00000000000000 2.17992634008283
 2.17992634008283 2.17992634008283 0.00000000000000
>>>>>>> 7cc294e (Central volumes for PBE Z=97-103, and PBEsol and LDA for Z=1-103)
PRIMCOORD
 1 1
 100     0.00000000000000     0.00000000000000     0.00000000000000
