CRYSTAL
PRIMVEC
<<<<<<< HEAD
 2.73708585674744 0.00000000000000 0.00000000000000
 0.00000000000000 2.73708585674744 0.00000000000000
 0.00000000000000 0.00000000000000 2.73708585674744
=======
 2.73708573858876 0.00000000000000 0.00000000000000
 0.00000000000000 2.73708573858876 0.00000000000000
 0.00000000000000 0.00000000000000 2.73708573858876
>>>>>>> 7cc294e (Central volumes for PBE Z=97-103, and PBEsol and LDA for Z=1-103)
PRIMCOORD
 1 1
 100     0.00000000000000     0.00000000000000     0.00000000000000
