CRYSTAL
PRIMVEC
<<<<<<< HEAD
<<<<<<< HEAD
 0.00000000000000 5.41747850276614 5.41747850276614
 5.41747850276614 0.00000000000000 5.41747850276614
 5.41747850276614 5.41747850276614 0.00000000000000
PRIMCOORD
 2 1
 87     0.00000000000000     0.00000000000000     0.00000000000000
 87     2.70873925138307     2.70873925138307     2.70873925138307
=======
 0.00000000000000 5.41747845916473 5.41747845916473
 5.41747845916473 0.00000000000000 5.41747845916473
 5.41747845916473 5.41747845916473 0.00000000000000
PRIMCOORD
 2 1
 87     0.00000000000000     0.00000000000000     0.00000000000000
 87     2.70873922958237     2.70873922958237     2.70873922958237
>>>>>>> 7cc294e (Central volumes for PBE Z=97-103, and PBEsol and LDA for Z=1-103)
=======
 0.00000000000000 5.41747850276614 5.41747850276614
 5.41747850276614 0.00000000000000 5.41747850276614
 5.41747850276614 5.41747850276614 0.00000000000000
PRIMCOORD
 2 1
 87     0.00000000000000     0.00000000000000     0.00000000000000
 87     2.70873925138307     2.70873925138307     2.70873925138307
>>>>>>> e84099c (Update new central volumes and add script for consistency checks)
