CRYSTAL
PRIMVEC
<<<<<<< HEAD
 0.00000000000000 3.61428268497036 3.61428268497036
 3.61428268497036 0.00000000000000 3.61428268497036
 3.61428268497036 3.61428268497036 0.00000000000000
=======
 0.00000000000000 3.61428218505365 3.61428218505365
 3.61428218505365 0.00000000000000 3.61428218505365
 3.61428218505365 3.61428218505365 0.00000000000000
>>>>>>> 7cc294e (Central volumes for PBE Z=97-103, and PBEsol and LDA for Z=1-103)
PRIMCOORD
 1 1
 87     0.00000000000000     0.00000000000000     0.00000000000000
