CRYSTAL
PRIMVEC
<<<<<<< HEAD
 4.78207760737922 0.00000000000000 0.00000000000000
 0.00000000000000 4.78207760737922 0.00000000000000
 0.00000000000000 0.00000000000000 4.78207760737922
=======
 4.78207759538012 0.00000000000000 0.00000000000000
 0.00000000000000 4.78207759538012 0.00000000000000
 0.00000000000000 0.00000000000000 4.78207759538012
>>>>>>> 7cc294e (Central volumes for PBE Z=97-103, and PBEsol and LDA for Z=1-103)
PRIMCOORD
 1 1
 87     0.00000000000000     0.00000000000000     0.00000000000000
