CRYSTAL
PRIMVEC
<<<<<<< HEAD
 -1.63171275965915 1.63171275965915 1.63171275965915
 1.63171275965915 -1.63171275965915 1.63171275965915
 1.63171275965915 1.63171275965915 -1.63171275965915
=======
 -1.63171274522264 1.63171274522264 1.63171274522264
 1.63171274522264 -1.63171274522264 1.63171274522264
 1.63171274522264 1.63171274522264 -1.63171274522264
>>>>>>> 7cc294e (Central volumes for PBE Z=97-103, and PBEsol and LDA for Z=1-103)
PRIMCOORD
 1 1
 31     0.00000000000000     0.00000000000000     0.00000000000000
