CRYSTAL
PRIMVEC
<<<<<<< HEAD
 0.00000000000000 2.83915670613714 2.83915670613714
 2.83915670613714 0.00000000000000 2.83915670613714
 2.83915670613714 2.83915670613714 0.00000000000000
PRIMCOORD
 2 1
 31     0.00000000000000     0.00000000000000     0.00000000000000
 31     1.41957835306857     1.41957835306857     1.41957835306857
=======
 0.00000000000000 2.83915667535923 2.83915667535923
 2.83915667535923 0.00000000000000 2.83915667535923
 2.83915667535923 2.83915667535923 0.00000000000000
PRIMCOORD
 2 1
 31     0.00000000000000     0.00000000000000     0.00000000000000
 31     1.41957833767962     1.41957833767962     1.41957833767962
>>>>>>> 7cc294e (Central volumes for PBE Z=97-103, and PBEsol and LDA for Z=1-103)
