CRYSTAL
PRIMVEC
<<<<<<< HEAD
 2.62667682199867 0.00000000000000 0.00000000000000
 0.00000000000000 2.62667682199867 0.00000000000000
 0.00000000000000 0.00000000000000 2.62667682199867
=======
 2.62667681159803 0.00000000000000 0.00000000000000
 0.00000000000000 2.62667681159803 0.00000000000000
 0.00000000000000 0.00000000000000 2.62667681159803
>>>>>>> 7cc294e (Central volumes for PBE Z=97-103, and PBEsol and LDA for Z=1-103)
PRIMCOORD
 1 1
 31     0.00000000000000     0.00000000000000     0.00000000000000
