CRYSTAL
PRIMVEC
<<<<<<< HEAD
 0.00000000000000 2.66799481207786 2.66799481207786
 2.66799481207786 0.00000000000000 2.66799481207786
 2.66799481207786 2.66799481207786 0.00000000000000
PRIMCOORD
 2 1
 64     0.00000000000000     0.00000000000000     0.00000000000000
 64     1.33399740603893     1.33399740603893     1.33399740603893
=======
 0.00000000000000 2.66799468031266 2.66799468031266
 2.66799468031266 0.00000000000000 2.66799468031266
 2.66799468031266 2.66799468031266 0.00000000000000
PRIMCOORD
 2 1
 64     0.00000000000000     0.00000000000000     0.00000000000000
 64     1.33399734015633     1.33399734015633     1.33399734015633
>>>>>>> 7cc294e (Central volumes for PBE Z=97-103, and PBEsol and LDA for Z=1-103)
