CRYSTAL
PRIMVEC
<<<<<<< HEAD
<<<<<<< HEAD
 0.00000000000000 2.16742923830759 2.16742923830759
 2.16742923830759 0.00000000000000 2.16742923830759
 2.16742923830759 2.16742923830759 0.00000000000000
=======
 0.00000000000000 2.16742905656187 2.16742905656187
 2.16742905656187 0.00000000000000 2.16742905656187
 2.16742905656187 2.16742905656187 0.00000000000000
>>>>>>> 7cc294e (Central volumes for PBE Z=97-103, and PBEsol and LDA for Z=1-103)
=======
 0.00000000000000 2.16742923830759 2.16742923830759
 2.16742923830759 0.00000000000000 2.16742923830759
 2.16742923830759 2.16742923830759 0.00000000000000
>>>>>>> e84099c (Update new central volumes and add script for consistency checks)
PRIMCOORD
 1 1
 64     0.00000000000000     0.00000000000000     0.00000000000000
