CRYSTAL
PRIMVEC
<<<<<<< HEAD
 2.51335781547169 0.00000000000000 0.00000000000000
 0.00000000000000 2.51335781547169 0.00000000000000
 0.00000000000000 0.00000000000000 2.51335781547169
=======
 2.51335779235145 0.00000000000000 0.00000000000000
 0.00000000000000 2.51335779235145 0.00000000000000
 0.00000000000000 0.00000000000000 2.51335779235145
>>>>>>> 7cc294e (Central volumes for PBE Z=97-103, and PBEsol and LDA for Z=1-103)
PRIMCOORD
 1 1
 64     0.00000000000000     0.00000000000000     0.00000000000000
