CRYSTAL
PRIMVEC
<<<<<<< HEAD
<<<<<<< HEAD
 0.00000000000000 2.81169765418829 2.81169765418829
 2.81169765418829 0.00000000000000 2.81169765418829
 2.81169765418829 2.81169765418829 0.00000000000000
PRIMCOORD
 2 1
 32     0.00000000000000     0.00000000000000     0.00000000000000
 32     1.40584882709415     1.40584882709415     1.40584882709415
=======
 0.00000000000000 2.81169761587007 2.81169761587007
 2.81169761587007 0.00000000000000 2.81169761587007
 2.81169761587007 2.81169761587007 0.00000000000000
PRIMCOORD
 2 1
 32     0.00000000000000     0.00000000000000     0.00000000000000
 32     1.40584880793503     1.40584880793503     1.40584880793503
>>>>>>> 7cc294e (Central volumes for PBE Z=97-103, and PBEsol and LDA for Z=1-103)
=======
 0.00000000000000 2.81169765418829 2.81169765418829
 2.81169765418829 0.00000000000000 2.81169765418829
 2.81169765418829 2.81169765418829 0.00000000000000
PRIMCOORD
 2 1
 32     0.00000000000000     0.00000000000000     0.00000000000000
 32     1.40584882709415     1.40584882709415     1.40584882709415
>>>>>>> e84099c (Update new central volumes and add script for consistency checks)
