CRYSTAL
PRIMVEC
<<<<<<< HEAD
 0.00000000000000 2.08628229467628 2.08628229467628
 2.08628229467628 0.00000000000000 2.08628229467628
 2.08628229467628 2.08628229467628 0.00000000000000
=======
 0.00000000000000 2.08628219492253 2.08628219492253
 2.08628219492253 0.00000000000000 2.08628219492253
 2.08628219492253 2.08628219492253 0.00000000000000
>>>>>>> 7cc294e (Central volumes for PBE Z=97-103, and PBEsol and LDA for Z=1-103)
PRIMCOORD
 1 1
 32     0.00000000000000     0.00000000000000     0.00000000000000
