CRYSTAL
PRIMVEC
<<<<<<< HEAD
 2.64552390520776 0.00000000000000 0.00000000000000
 0.00000000000000 2.64552390520776 0.00000000000000
 0.00000000000000 0.00000000000000 2.64552390520776
=======
 2.64552371076483 0.00000000000000 0.00000000000000
 0.00000000000000 2.64552371076483 0.00000000000000
 0.00000000000000 0.00000000000000 2.64552371076483
>>>>>>> 7cc294e (Central volumes for PBE Z=97-103, and PBEsol and LDA for Z=1-103)
PRIMCOORD
 1 1
 32     0.00000000000000     0.00000000000000     0.00000000000000
