CRYSTAL
PRIMVEC
<<<<<<< HEAD
 -0.89935815060170 0.89935815060170 0.89935815060170
 0.89935815060170 -0.89935815060170 0.89935815060170
 0.89935815060170 0.89935815060170 -0.89935815060170
=======
 -0.89935814467153 0.89935814467153 0.89935814467153
 0.89935814467153 -0.89935814467153 0.89935814467153
 0.89935814467153 0.89935814467153 -0.89935814467153
>>>>>>> 7cc294e (Central volumes for PBE Z=97-103, and PBEsol and LDA for Z=1-103)
PRIMCOORD
 1 1
  1     0.00000000000000     0.00000000000000     0.00000000000000
