CRYSTAL
PRIMVEC
<<<<<<< HEAD
<<<<<<< HEAD
 0.00000000000000 1.49487599021241 1.49487599021241
 1.49487599021241 0.00000000000000 1.49487599021241
 1.49487599021241 1.49487599021241 0.00000000000000
PRIMCOORD
 2 1
  1     0.00000000000000     0.00000000000000     0.00000000000000
  1     0.74743799510620     0.74743799510620     0.74743799510620
=======
 0.00000000000000 1.49487598808664 1.49487598808664
 1.49487598808664 0.00000000000000 1.49487598808664
 1.49487598808664 1.49487598808664 0.00000000000000
PRIMCOORD
 2 1
  1     0.00000000000000     0.00000000000000     0.00000000000000
  1     0.74743799404332     0.74743799404332     0.74743799404332
>>>>>>> 7cc294e (Central volumes for PBE Z=97-103, and PBEsol and LDA for Z=1-103)
=======
 0.00000000000000 1.49487599021241 1.49487599021241
 1.49487599021241 0.00000000000000 1.49487599021241
 1.49487599021241 1.49487599021241 0.00000000000000
PRIMCOORD
 2 1
  1     0.00000000000000     0.00000000000000     0.00000000000000
  1     0.74743799510620     0.74743799510620     0.74743799510620
>>>>>>> e84099c (Update new central volumes and add script for consistency checks)
