CRYSTAL
PRIMVEC
<<<<<<< HEAD
 0.00000000000000 1.13279424316758 1.13279424316758
 1.13279424316758 0.00000000000000 1.13279424316758
 1.13279424316758 1.13279424316758 0.00000000000000
=======
 0.00000000000000 1.13279424285054 1.13279424285054
 1.13279424285054 0.00000000000000 1.13279424285054
 1.13279424285054 1.13279424285054 0.00000000000000
>>>>>>> 7cc294e (Central volumes for PBE Z=97-103, and PBEsol and LDA for Z=1-103)
PRIMCOORD
 1 1
  1     0.00000000000000     0.00000000000000     0.00000000000000
