CRYSTAL
PRIMVEC
<<<<<<< HEAD
<<<<<<< HEAD
 1.44581579200373 0.00000000000000 0.00000000000000
 0.00000000000000 1.44581579200373 0.00000000000000
 0.00000000000000 0.00000000000000 1.44581579200373
=======
 1.44581577997341 0.00000000000000 0.00000000000000
 0.00000000000000 1.44581577997341 0.00000000000000
 0.00000000000000 0.00000000000000 1.44581577997341
>>>>>>> 7cc294e (Central volumes for PBE Z=97-103, and PBEsol and LDA for Z=1-103)
=======
 1.44581579200373 0.00000000000000 0.00000000000000
 0.00000000000000 1.44581579200373 0.00000000000000
 0.00000000000000 0.00000000000000 1.44581579200373
>>>>>>> e84099c (Update new central volumes and add script for consistency checks)
PRIMCOORD
 1 1
  1     0.00000000000000     0.00000000000000     0.00000000000000
