CRYSTAL
PRIMVEC
<<<<<<< HEAD
<<<<<<< HEAD
 -1.37478594795012 1.37478594795012 1.37478594795012
 1.37478594795012 -1.37478594795012 1.37478594795012
 1.37478594795012 1.37478594795012 -1.37478594795012
=======
 -1.37478593348859 1.37478593348859 1.37478593348859
 1.37478593348859 -1.37478593348859 1.37478593348859
 1.37478593348859 1.37478593348859 -1.37478593348859
>>>>>>> 7cc294e (Central volumes for PBE Z=97-103, and PBEsol and LDA for Z=1-103)
=======
 -1.37478594795012 1.37478594795012 1.37478594795012
 1.37478594795012 -1.37478594795012 1.37478594795012
 1.37478594795012 1.37478594795012 -1.37478594795012
>>>>>>> e84099c (Update new central volumes and add script for consistency checks)
PRIMCOORD
 1 1
  2     0.00000000000000     0.00000000000000     0.00000000000000
