CRYSTAL
PRIMVEC
<<<<<<< HEAD
 0.00000000000000 2.74507705438472 2.74507705438472
 2.74507705438472 0.00000000000000 2.74507705438472
 2.74507705438472 2.74507705438472 0.00000000000000
PRIMCOORD
 2 1
  2     0.00000000000000     0.00000000000000     0.00000000000000
  2     1.37253852719236     1.37253852719236     1.37253852719236
=======
 0.00000000000000 2.74507704014176 2.74507704014176
 2.74507704014176 0.00000000000000 2.74507704014176
 2.74507704014176 2.74507704014176 0.00000000000000
PRIMCOORD
 2 1
  2     0.00000000000000     0.00000000000000     0.00000000000000
  2     1.37253852007088     1.37253852007088     1.37253852007088
>>>>>>> 7cc294e (Central volumes for PBE Z=97-103, and PBEsol and LDA for Z=1-103)
