CRYSTAL
PRIMVEC
<<<<<<< HEAD
 0.00000000000000 1.72139466846885 1.72139466846885
 1.72139466846885 0.00000000000000 1.72139466846885
 1.72139466846885 1.72139466846885 0.00000000000000
=======
 0.00000000000000 1.72139464340242 1.72139464340242
 1.72139464340242 0.00000000000000 1.72139464340242
 1.72139464340242 1.72139464340242 0.00000000000000
>>>>>>> 7cc294e (Central volumes for PBE Z=97-103, and PBEsol and LDA for Z=1-103)
PRIMCOORD
 1 1
  2     0.00000000000000     0.00000000000000     0.00000000000000
