CRYSTAL
PRIMVEC
<<<<<<< HEAD
 2.37418396785330 0.00000000000000 0.00000000000000
 0.00000000000000 2.37418396785330 0.00000000000000
 0.00000000000000 0.00000000000000 2.37418396785330
=======
 2.37418394987585 0.00000000000000 0.00000000000000
 0.00000000000000 2.37418394987585 0.00000000000000
 0.00000000000000 0.00000000000000 2.37418394987585
>>>>>>> 7cc294e (Central volumes for PBE Z=97-103, and PBEsol and LDA for Z=1-103)
PRIMCOORD
 1 1
  2     0.00000000000000     0.00000000000000     0.00000000000000
