CRYSTAL
PRIMVEC
<<<<<<< HEAD
<<<<<<< HEAD
 -1.72176691989724 1.72176691989724 1.72176691989724
 1.72176691989724 -1.72176691989724 1.72176691989724
 1.72176691989724 1.72176691989724 -1.72176691989724
=======
 -1.72176691971991 1.72176691971991 1.72176691971991
 1.72176691971991 -1.72176691971991 1.72176691971991
 1.72176691971991 1.72176691971991 -1.72176691971991
>>>>>>> 7cc294e (Central volumes for PBE Z=97-103, and PBEsol and LDA for Z=1-103)
=======
 -1.72176691989724 1.72176691989724 1.72176691989724
 1.72176691989724 -1.72176691989724 1.72176691989724
 1.72176691989724 1.72176691989724 -1.72176691989724
>>>>>>> e84099c (Update new central volumes and add script for consistency checks)
PRIMCOORD
 1 1
 72     0.00000000000000     0.00000000000000     0.00000000000000
