CRYSTAL
PRIMVEC
<<<<<<< HEAD
 0.00000000000000 3.11068519394880 3.11068519394880
 3.11068519394880 0.00000000000000 3.11068519394880
 3.11068519394880 3.11068519394880 0.00000000000000
PRIMCOORD
 2 1
 72     0.00000000000000     0.00000000000000     0.00000000000000
 72     1.55534259697440     1.55534259697440     1.55534259697440
=======
 0.00000000000000 3.11068517750962 3.11068517750962
 3.11068517750962 0.00000000000000 3.11068517750962
 3.11068517750962 3.11068517750962 0.00000000000000
PRIMCOORD
 2 1
 72     0.00000000000000     0.00000000000000     0.00000000000000
 72     1.55534258875481     1.55534258875481     1.55534258875481
>>>>>>> 7cc294e (Central volumes for PBE Z=97-103, and PBEsol and LDA for Z=1-103)
