CRYSTAL
PRIMVEC
<<<<<<< HEAD
<<<<<<< HEAD
 2.82315667860990 0.00000000000000 0.00000000000000
 0.00000000000000 2.82315667860990 0.00000000000000
 0.00000000000000 0.00000000000000 2.82315667860990
=======
 2.82315665832409 0.00000000000000 0.00000000000000
 0.00000000000000 2.82315665832409 0.00000000000000
 0.00000000000000 0.00000000000000 2.82315665832409
>>>>>>> 7cc294e (Central volumes for PBE Z=97-103, and PBEsol and LDA for Z=1-103)
=======
 2.82315667860990 0.00000000000000 0.00000000000000
 0.00000000000000 2.82315667860990 0.00000000000000
 0.00000000000000 0.00000000000000 2.82315667860990
>>>>>>> e84099c (Update new central volumes and add script for consistency checks)
PRIMCOORD
 1 1
 72     0.00000000000000     0.00000000000000     0.00000000000000
