CRYSTAL
PRIMVEC
<<<<<<< HEAD
 -1.78004106950822 1.78004106950822 1.78004106950822
 1.78004106950822 -1.78004106950822 1.78004106950822
 1.78004106950822 1.78004106950822 -1.78004106950822
=======
 -1.78004104329908 1.78004104329908 1.78004104329908
 1.78004104329908 -1.78004104329908 1.78004104329908
 1.78004104329908 1.78004104329908 -1.78004104329908
>>>>>>> 7cc294e (Central volumes for PBE Z=97-103, and PBEsol and LDA for Z=1-103)
PRIMCOORD
 1 1
 80     0.00000000000000     0.00000000000000     0.00000000000000
