CRYSTAL
PRIMVEC
<<<<<<< HEAD
 0.00000000000000 3.22118457464199 3.22118457464199
 3.22118457464199 0.00000000000000 3.22118457464199
 3.22118457464199 3.22118457464199 0.00000000000000
PRIMCOORD
 2 1
 80     0.00000000000000     0.00000000000000     0.00000000000000
 80     1.61059228732100     1.61059228732100     1.61059228732100
=======
 0.00000000000000 3.22118453439544 3.22118453439544
 3.22118453439544 0.00000000000000 3.22118453439544
 3.22118453439544 3.22118453439544 0.00000000000000
PRIMCOORD
 2 1
 80     0.00000000000000     0.00000000000000     0.00000000000000
 80     1.61059226719772     1.61059226719772     1.61059226719772
>>>>>>> 7cc294e (Central volumes for PBE Z=97-103, and PBEsol and LDA for Z=1-103)
