CRYSTAL
PRIMVEC
<<<<<<< HEAD
 0.00000000000000 2.22349286422053 2.22349286422053
 2.22349286422053 0.00000000000000 2.22349286422053
 2.22349286422053 2.22349286422053 0.00000000000000
=======
 0.00000000000000 2.22349285934752 2.22349285934752
 2.22349285934752 0.00000000000000 2.22349285934752
 2.22349285934752 2.22349285934752 0.00000000000000
>>>>>>> 7cc294e (Central volumes for PBE Z=97-103, and PBEsol and LDA for Z=1-103)
PRIMCOORD
 1 1
 80     0.00000000000000     0.00000000000000     0.00000000000000
