CRYSTAL
PRIMVEC
<<<<<<< HEAD
 -1.88178020141653 1.88178020141653 1.88178020141653
 1.88178020141653 -1.88178020141653 1.88178020141653
 1.88178020141653 1.88178020141653 -1.88178020141653
=======
 -1.88178019915827 1.88178019915827 1.88178019915827
 1.88178019915827 -1.88178019915827 1.88178019915827
 1.88178019915827 1.88178019915827 -1.88178019915827
>>>>>>> 7cc294e (Central volumes for PBE Z=97-103, and PBEsol and LDA for Z=1-103)
PRIMCOORD
 1 1
 67     0.00000000000000     0.00000000000000     0.00000000000000
