CRYSTAL
PRIMVEC
<<<<<<< HEAD
 0.00000000000000 2.76046513193623 2.76046513193623
 2.76046513193623 0.00000000000000 2.76046513193623
 2.76046513193623 2.76046513193623 0.00000000000000
PRIMCOORD
 2 1
 67     0.00000000000000     0.00000000000000     0.00000000000000
 67     1.38023256596811     1.38023256596811     1.38023256596811
=======
 0.00000000000000 2.76046510385722 2.76046510385722
 2.76046510385722 0.00000000000000 2.76046510385722
 2.76046510385722 2.76046510385722 0.00000000000000
PRIMCOORD
 2 1
 67     0.00000000000000     0.00000000000000     0.00000000000000
 67     1.38023255192861     1.38023255192861     1.38023255192861
>>>>>>> 7cc294e (Central volumes for PBE Z=97-103, and PBEsol and LDA for Z=1-103)
