CRYSTAL
PRIMVEC
<<<<<<< HEAD
 0.00000000000000 2.35914962474838 2.35914962474838
 2.35914962474838 0.00000000000000 2.35914962474838
 2.35914962474838 2.35914962474838 0.00000000000000
=======
 0.00000000000000 2.35914962183879 2.35914962183879
 2.35914962183879 0.00000000000000 2.35914962183879
 2.35914962183879 2.35914962183879 0.00000000000000
>>>>>>> 7cc294e (Central volumes for PBE Z=97-103, and PBEsol and LDA for Z=1-103)
PRIMCOORD
 1 1
 67     0.00000000000000     0.00000000000000     0.00000000000000
