CRYSTAL
PRIMVEC
<<<<<<< HEAD
<<<<<<< HEAD
 2.90050126119441 0.00000000000000 0.00000000000000
 0.00000000000000 2.90050126119441 0.00000000000000
 0.00000000000000 0.00000000000000 2.90050126119441
=======
 2.90050125259965 0.00000000000000 0.00000000000000
 0.00000000000000 2.90050125259965 0.00000000000000
 0.00000000000000 0.00000000000000 2.90050125259965
>>>>>>> 7cc294e (Central volumes for PBE Z=97-103, and PBEsol and LDA for Z=1-103)
=======
 2.90050126119441 0.00000000000000 0.00000000000000
 0.00000000000000 2.90050126119441 0.00000000000000
 0.00000000000000 0.00000000000000 2.90050126119441
>>>>>>> e84099c (Update new central volumes and add script for consistency checks)
PRIMCOORD
 1 1
 67     0.00000000000000     0.00000000000000     0.00000000000000
