CRYSTAL
PRIMVEC
<<<<<<< HEAD
<<<<<<< HEAD
 -1.99530228964131 1.99530228964131 1.99530228964131
 1.99530228964131 -1.99530228964131 1.99530228964131
 1.99530228964131 1.99530228964131 -1.99530228964131
=======
 -1.99530228580915 1.99530228580915 1.99530228580915
 1.99530228580915 -1.99530228580915 1.99530228580915
 1.99530228580915 1.99530228580915 -1.99530228580915
>>>>>>> 7cc294e (Central volumes for PBE Z=97-103, and PBEsol and LDA for Z=1-103)
=======
 -1.99530228964131 1.99530228964131 1.99530228964131
 1.99530228964131 -1.99530228964131 1.99530228964131
 1.99530228964131 1.99530228964131 -1.99530228964131
>>>>>>> e84099c (Update new central volumes and add script for consistency checks)
PRIMCOORD
 1 1
 53     0.00000000000000     0.00000000000000     0.00000000000000
