CRYSTAL
PRIMVEC
<<<<<<< HEAD
<<<<<<< HEAD
 0.00000000000000 3.77381119668339 3.77381119668339
 3.77381119668339 0.00000000000000 3.77381119668339
 3.77381119668339 3.77381119668339 0.00000000000000
PRIMCOORD
 2 1
 53     0.00000000000000     0.00000000000000     0.00000000000000
 53     1.88690559834169     1.88690559834169     1.88690559834169
=======
 0.00000000000000 3.77381119550336 3.77381119550336
 3.77381119550336 0.00000000000000 3.77381119550336
 3.77381119550336 3.77381119550336 0.00000000000000
PRIMCOORD
 2 1
 53     0.00000000000000     0.00000000000000     0.00000000000000
 53     1.88690559775168     1.88690559775168     1.88690559775168
>>>>>>> 7cc294e (Central volumes for PBE Z=97-103, and PBEsol and LDA for Z=1-103)
=======
 0.00000000000000 3.77381119668339 3.77381119668339
 3.77381119668339 0.00000000000000 3.77381119668339
 3.77381119668339 3.77381119668339 0.00000000000000
PRIMCOORD
 2 1
 53     0.00000000000000     0.00000000000000     0.00000000000000
 53     1.88690559834169     1.88690559834169     1.88690559834169
>>>>>>> e84099c (Update new central volumes and add script for consistency checks)
