CRYSTAL
PRIMVEC
<<<<<<< HEAD
<<<<<<< HEAD
 3.34388278393351 0.00000000000000 0.00000000000000
 0.00000000000000 3.34388278393351 0.00000000000000
 0.00000000000000 0.00000000000000 3.34388278393351
=======
 3.34388270434411 0.00000000000000 0.00000000000000
 0.00000000000000 3.34388270434411 0.00000000000000
 0.00000000000000 0.00000000000000 3.34388270434411
>>>>>>> 7cc294e (Central volumes for PBE Z=97-103, and PBEsol and LDA for Z=1-103)
=======
 3.34388278393351 0.00000000000000 0.00000000000000
 0.00000000000000 3.34388278393351 0.00000000000000
 0.00000000000000 0.00000000000000 3.34388278393351
>>>>>>> e84099c (Update new central volumes and add script for consistency checks)
PRIMCOORD
 1 1
 53     0.00000000000000     0.00000000000000     0.00000000000000
