CRYSTAL
PRIMVEC
<<<<<<< HEAD
<<<<<<< HEAD
 -1.83841923821378 1.83841923821378 1.83841923821378
 1.83841923821378 -1.83841923821378 1.83841923821378
 1.83841923821378 1.83841923821378 -1.83841923821378
=======
 -1.83841920501806 1.83841920501806 1.83841920501806
 1.83841920501806 -1.83841920501806 1.83841920501806
 1.83841920501806 1.83841920501806 -1.83841920501806
>>>>>>> 7cc294e (Central volumes for PBE Z=97-103, and PBEsol and LDA for Z=1-103)
=======
 -1.83841923821378 1.83841923821378 1.83841923821378
 1.83841923821378 -1.83841923821378 1.83841923821378
 1.83841923821378 1.83841923821378 -1.83841923821378
>>>>>>> e84099c (Update new central volumes and add script for consistency checks)
PRIMCOORD
 1 1
 49     0.00000000000000     0.00000000000000     0.00000000000000
