CRYSTAL
PRIMVEC
<<<<<<< HEAD
<<<<<<< HEAD
 0.00000000000000 3.23238647222929 3.23238647222929
 3.23238647222929 0.00000000000000 3.23238647222929
 3.23238647222929 3.23238647222929 0.00000000000000
PRIMCOORD
 2 1
 49     0.00000000000000     0.00000000000000     0.00000000000000
 49     1.61619323611464     1.61619323611464     1.61619323611464
=======
 0.00000000000000 3.23238646270052 3.23238646270052
 3.23238646270052 0.00000000000000 3.23238646270052
 3.23238646270052 3.23238646270052 0.00000000000000
PRIMCOORD
 2 1
 49     0.00000000000000     0.00000000000000     0.00000000000000
 49     1.61619323135026     1.61619323135026     1.61619323135026
>>>>>>> 7cc294e (Central volumes for PBE Z=97-103, and PBEsol and LDA for Z=1-103)
=======
 0.00000000000000 3.23238647222929 3.23238647222929
 3.23238647222929 0.00000000000000 3.23238647222929
 3.23238647222929 3.23238647222929 0.00000000000000
PRIMCOORD
 2 1
 49     0.00000000000000     0.00000000000000     0.00000000000000
 49     1.61619323611464     1.61619323611464     1.61619323611464
>>>>>>> e84099c (Update new central volumes and add script for consistency checks)
