CRYSTAL
PRIMVEC
<<<<<<< HEAD
 2.97110853897644 0.00000000000000 0.00000000000000
 0.00000000000000 2.97110853897644 0.00000000000000
 0.00000000000000 0.00000000000000 2.97110853897644
=======
 2.97110849270055 0.00000000000000 0.00000000000000
 0.00000000000000 2.97110849270055 0.00000000000000
 0.00000000000000 0.00000000000000 2.97110849270055
>>>>>>> 7cc294e (Central volumes for PBE Z=97-103, and PBEsol and LDA for Z=1-103)
PRIMCOORD
 1 1
 49     0.00000000000000     0.00000000000000     0.00000000000000
