CRYSTAL
PRIMVEC
<<<<<<< HEAD
 0.00000000000000 2.73827851458479 2.73827851458479
 2.73827851458479 0.00000000000000 2.73827851458479
 2.73827851458479 2.73827851458479 0.00000000000000
PRIMCOORD
 2 1
 77     0.00000000000000     0.00000000000000     0.00000000000000
 77     1.36913925729240     1.36913925729240     1.36913925729240
=======
 0.00000000000000 2.73827848540147 2.73827848540147
 2.73827848540147 0.00000000000000 2.73827848540147
 2.73827848540147 2.73827848540147 0.00000000000000
PRIMCOORD
 2 1
 77     0.00000000000000     0.00000000000000     0.00000000000000
 77     1.36913924270074     1.36913924270074     1.36913924270074
>>>>>>> 7cc294e (Central volumes for PBE Z=97-103, and PBEsol and LDA for Z=1-103)
