CRYSTAL
PRIMVEC
<<<<<<< HEAD
<<<<<<< HEAD
 2.52685604097362 0.00000000000000 0.00000000000000
 0.00000000000000 2.52685604097362 0.00000000000000
 0.00000000000000 0.00000000000000 2.52685604097362
=======
 2.52685602610470 0.00000000000000 0.00000000000000
 0.00000000000000 2.52685602610470 0.00000000000000
 0.00000000000000 0.00000000000000 2.52685602610470
>>>>>>> 7cc294e (Central volumes for PBE Z=97-103, and PBEsol and LDA for Z=1-103)
=======
 2.52685604097362 0.00000000000000 0.00000000000000
 0.00000000000000 2.52685604097362 0.00000000000000
 0.00000000000000 0.00000000000000 2.52685604097362
>>>>>>> e84099c (Update new central volumes and add script for consistency checks)
PRIMCOORD
 1 1
 77     0.00000000000000     0.00000000000000     0.00000000000000
