CRYSTAL
PRIMVEC
<<<<<<< HEAD
 -2.52191074415003 2.52191074415003 2.52191074415003
 2.52191074415003 -2.52191074415003 2.52191074415003
 2.52191074415003 2.52191074415003 -2.52191074415003
=======
 -2.52191074392288 2.52191074392288 2.52191074392288
 2.52191074392288 -2.52191074392288 2.52191074392288
 2.52191074392288 2.52191074392288 -2.52191074392288
>>>>>>> 7cc294e (Central volumes for PBE Z=97-103, and PBEsol and LDA for Z=1-103)
PRIMCOORD
 1 1
 19     0.00000000000000     0.00000000000000     0.00000000000000
