CRYSTAL
PRIMVEC
<<<<<<< HEAD
<<<<<<< HEAD
 0.00000000000000 4.58170620289590 4.58170620289590
 4.58170620289590 0.00000000000000 4.58170620289590
 4.58170620289590 4.58170620289590 0.00000000000000
PRIMCOORD
 2 1
 19     0.00000000000000     0.00000000000000     0.00000000000000
 19     2.29085310144795     2.29085310144795     2.29085310144795
=======
 0.00000000000000 4.58170619689646 4.58170619689646
 4.58170619689646 0.00000000000000 4.58170619689646
 4.58170619689646 4.58170619689646 0.00000000000000
PRIMCOORD
 2 1
 19     0.00000000000000     0.00000000000000     0.00000000000000
 19     2.29085309844823     2.29085309844823     2.29085309844823
>>>>>>> 7cc294e (Central volumes for PBE Z=97-103, and PBEsol and LDA for Z=1-103)
=======
 0.00000000000000 4.58170620289590 4.58170620289590
 4.58170620289590 0.00000000000000 4.58170620289590
 4.58170620289590 4.58170620289590 0.00000000000000
PRIMCOORD
 2 1
 19     0.00000000000000     0.00000000000000     0.00000000000000
 19     2.29085310144795     2.29085310144795     2.29085310144795
>>>>>>> e84099c (Update new central volumes and add script for consistency checks)
