CRYSTAL
PRIMVEC
<<<<<<< HEAD
 4.09888623019236 0.00000000000000 0.00000000000000
 0.00000000000000 4.09888623019236 0.00000000000000
 0.00000000000000 0.00000000000000 4.09888623019236
=======
 4.09888604125158 0.00000000000000 0.00000000000000
 0.00000000000000 4.09888604125158 0.00000000000000
 0.00000000000000 0.00000000000000 4.09888604125158
>>>>>>> 7cc294e (Central volumes for PBE Z=97-103, and PBEsol and LDA for Z=1-103)
PRIMCOORD
 1 1
 19     0.00000000000000     0.00000000000000     0.00000000000000
