CRYSTAL
PRIMVEC
<<<<<<< HEAD
<<<<<<< HEAD
 -2.13057335124186 2.13057335124186 2.13057335124186
 2.13057335124186 -2.13057335124186 2.13057335124186
 2.13057335124186 2.13057335124186 -2.13057335124186
=======
 -2.13057335091367 2.13057335091367 2.13057335091367
 2.13057335091367 -2.13057335091367 2.13057335091367
 2.13057335091367 2.13057335091367 -2.13057335091367
>>>>>>> 7cc294e (Central volumes for PBE Z=97-103, and PBEsol and LDA for Z=1-103)
=======
 -2.13057335124186 2.13057335124186 2.13057335124186
 2.13057335124186 -2.13057335124186 2.13057335124186
 2.13057335124186 2.13057335124186 -2.13057335124186
>>>>>>> e84099c (Update new central volumes and add script for consistency checks)
PRIMCOORD
 1 1
 36     0.00000000000000     0.00000000000000     0.00000000000000
