CRYSTAL
PRIMVEC
<<<<<<< HEAD
<<<<<<< HEAD
 0.00000000000000 4.23389099743996 4.23389099743996
 4.23389099743996 0.00000000000000 4.23389099743996
 4.23389099743996 4.23389099743996 0.00000000000000
PRIMCOORD
 2 1
 36     0.00000000000000     0.00000000000000     0.00000000000000
 36     2.11694549871998     2.11694549871998     2.11694549871998
=======
 0.00000000000000 4.23389099667123 4.23389099667123
 4.23389099667123 0.00000000000000 4.23389099667123
 4.23389099667123 4.23389099667123 0.00000000000000
PRIMCOORD
 2 1
 36     0.00000000000000     0.00000000000000     0.00000000000000
 36     2.11694549833561     2.11694549833561     2.11694549833561
>>>>>>> 7cc294e (Central volumes for PBE Z=97-103, and PBEsol and LDA for Z=1-103)
=======
 0.00000000000000 4.23389099743996 4.23389099743996
 4.23389099743996 0.00000000000000 4.23389099743996
 4.23389099743996 4.23389099743996 0.00000000000000
PRIMCOORD
 2 1
 36     0.00000000000000     0.00000000000000     0.00000000000000
 36     2.11694549871998     2.11694549871998     2.11694549871998
>>>>>>> e84099c (Update new central volumes and add script for consistency checks)
