CRYSTAL
PRIMVEC
<<<<<<< HEAD
 0.00000000000000 2.66501030701954 2.66501030701954
 2.66501030701954 0.00000000000000 2.66501030701954
 2.66501030701954 2.66501030701954 0.00000000000000
=======
 0.00000000000000 2.66501030667973 2.66501030667973
 2.66501030667973 0.00000000000000 2.66501030667973
 2.66501030667973 2.66501030667973 0.00000000000000
>>>>>>> 7cc294e (Central volumes for PBE Z=97-103, and PBEsol and LDA for Z=1-103)
PRIMCOORD
 1 1
 36     0.00000000000000     0.00000000000000     0.00000000000000
