CRYSTAL
PRIMVEC
<<<<<<< HEAD
<<<<<<< HEAD
 3.67543859690184 0.00000000000000 0.00000000000000
 0.00000000000000 3.67543859690184 0.00000000000000
 0.00000000000000 0.00000000000000 3.67543859690184
=======
 3.67543859637079 0.00000000000000 0.00000000000000
 0.00000000000000 3.67543859637079 0.00000000000000
 0.00000000000000 0.00000000000000 3.67543859637079
>>>>>>> 7cc294e (Central volumes for PBE Z=97-103, and PBEsol and LDA for Z=1-103)
=======
 3.67543859690184 0.00000000000000 0.00000000000000
 0.00000000000000 3.67543859690184 0.00000000000000
 0.00000000000000 0.00000000000000 3.67543859690184
>>>>>>> e84099c (Update new central volumes and add script for consistency checks)
PRIMCOORD
 1 1
 36     0.00000000000000     0.00000000000000     0.00000000000000
