CRYSTAL
PRIMVEC
<<<<<<< HEAD
<<<<<<< HEAD
 -2.02402315039356 2.02402315039356 2.02402315039356
 2.02402315039356 -2.02402315039356 2.02402315039356
 2.02402315039356 2.02402315039356 -2.02402315039356
=======
 -2.02402313724428 2.02402313724428 2.02402313724428
 2.02402313724428 -2.02402313724428 2.02402313724428
 2.02402313724428 2.02402313724428 -2.02402313724428
>>>>>>> 7cc294e (Central volumes for PBE Z=97-103, and PBEsol and LDA for Z=1-103)
=======
 -2.02402315039356 2.02402315039356 2.02402315039356
 2.02402315039356 -2.02402315039356 2.02402315039356
 2.02402315039356 2.02402315039356 -2.02402315039356
>>>>>>> e84099c (Update new central volumes and add script for consistency checks)
PRIMCOORD
 1 1
 57     0.00000000000000     0.00000000000000     0.00000000000000
