CRYSTAL
PRIMVEC
<<<<<<< HEAD
<<<<<<< HEAD
 0.00000000000000 3.25851097122430 3.25851097122430
 3.25851097122430 0.00000000000000 3.25851097122430
 3.25851097122430 3.25851097122430 0.00000000000000
PRIMCOORD
 2 1
 57     0.00000000000000     0.00000000000000     0.00000000000000
 57     1.62925548561215     1.62925548561215     1.62925548561215
=======
 0.00000000000000 3.25851072298287 3.25851072298287
 3.25851072298287 0.00000000000000 3.25851072298287
 3.25851072298287 3.25851072298287 0.00000000000000
PRIMCOORD
 2 1
 57     0.00000000000000     0.00000000000000     0.00000000000000
 57     1.62925536149143     1.62925536149143     1.62925536149143
>>>>>>> 7cc294e (Central volumes for PBE Z=97-103, and PBEsol and LDA for Z=1-103)
=======
 0.00000000000000 3.25851097122430 3.25851097122430
 3.25851097122430 0.00000000000000 3.25851097122430
 3.25851097122430 3.25851097122430 0.00000000000000
PRIMCOORD
 2 1
 57     0.00000000000000     0.00000000000000     0.00000000000000
 57     1.62925548561215     1.62925548561215     1.62925548561215
>>>>>>> e84099c (Update new central volumes and add script for consistency checks)
