CRYSTAL
PRIMVEC
<<<<<<< HEAD
 0.00000000000000 2.51965038322487 2.51965038322487
 2.51965038322487 0.00000000000000 2.51965038322487
 2.51965038322487 2.51965038322487 0.00000000000000
=======
 0.00000000000000 2.51965034216770 2.51965034216770
 2.51965034216770 0.00000000000000 2.51965034216770
 2.51965034216770 2.51965034216770 0.00000000000000
>>>>>>> 7cc294e (Central volumes for PBE Z=97-103, and PBEsol and LDA for Z=1-103)
PRIMCOORD
 1 1
 57     0.00000000000000     0.00000000000000     0.00000000000000
