CRYSTAL
PRIMVEC
<<<<<<< HEAD
<<<<<<< HEAD
 3.16913636898814 0.00000000000000 0.00000000000000
 0.00000000000000 3.16913636898814 0.00000000000000
 0.00000000000000 0.00000000000000 3.16913636898814
=======
 3.16913616031497 0.00000000000000 0.00000000000000
 0.00000000000000 3.16913616031497 0.00000000000000
 0.00000000000000 0.00000000000000 3.16913616031497
>>>>>>> 7cc294e (Central volumes for PBE Z=97-103, and PBEsol and LDA for Z=1-103)
=======
 3.16913636898814 0.00000000000000 0.00000000000000
 0.00000000000000 3.16913636898814 0.00000000000000
 0.00000000000000 0.00000000000000 3.16913636898814
>>>>>>> e84099c (Update new central volumes and add script for consistency checks)
PRIMCOORD
 1 1
 57     0.00000000000000     0.00000000000000     0.00000000000000
