CRYSTAL
PRIMVEC
<<<<<<< HEAD
<<<<<<< HEAD
 0.00000000000000 2.84885401112965 2.84885401112965
 2.84885401112965 0.00000000000000 2.84885401112965
 2.84885401112965 2.84885401112965 0.00000000000000
PRIMCOORD
 2 1
  3     0.00000000000000     0.00000000000000     0.00000000000000
  3     1.42442700556483     1.42442700556483     1.42442700556483
=======
 0.00000000000000 2.84885395159119 2.84885395159119
 2.84885395159119 0.00000000000000 2.84885395159119
 2.84885395159119 2.84885395159119 0.00000000000000
PRIMCOORD
 2 1
  3     0.00000000000000     0.00000000000000     0.00000000000000
  3     1.42442697579559     1.42442697579559     1.42442697579559
>>>>>>> 7cc294e (Central volumes for PBE Z=97-103, and PBEsol and LDA for Z=1-103)
=======
 0.00000000000000 2.84885401112965 2.84885401112965
 2.84885401112965 0.00000000000000 2.84885401112965
 2.84885401112965 2.84885401112965 0.00000000000000
PRIMCOORD
 2 1
  3     0.00000000000000     0.00000000000000     0.00000000000000
  3     1.42442700556483     1.42442700556483     1.42442700556483
>>>>>>> e84099c (Update new central volumes and add script for consistency checks)
