CRYSTAL
PRIMVEC
<<<<<<< HEAD
 0.00000000000000 2.11654635266239 2.11654635266239
 2.11654635266239 0.00000000000000 2.11654635266239
 2.11654635266239 2.11654635266239 0.00000000000000
=======
 0.00000000000000 2.11654634383076 2.11654634383076
 2.11654634383076 0.00000000000000 2.11654634383076
 2.11654634383076 2.11654634383076 0.00000000000000
>>>>>>> 7cc294e (Central volumes for PBE Z=97-103, and PBEsol and LDA for Z=1-103)
PRIMCOORD
 1 1
  3     0.00000000000000     0.00000000000000     0.00000000000000
