CRYSTAL
PRIMVEC
<<<<<<< HEAD
<<<<<<< HEAD
 2.66886884060442 0.00000000000000 0.00000000000000
 0.00000000000000 2.66886884060442 0.00000000000000
 0.00000000000000 0.00000000000000 2.66886884060442
=======
 2.66886878002612 0.00000000000000 0.00000000000000
 0.00000000000000 2.66886878002612 0.00000000000000
 0.00000000000000 0.00000000000000 2.66886878002612
>>>>>>> 7cc294e (Central volumes for PBE Z=97-103, and PBEsol and LDA for Z=1-103)
=======
 2.66886884060442 0.00000000000000 0.00000000000000
 0.00000000000000 2.66886884060442 0.00000000000000
 0.00000000000000 0.00000000000000 2.66886884060442
>>>>>>> e84099c (Update new central volumes and add script for consistency checks)
PRIMCOORD
 1 1
  3     0.00000000000000     0.00000000000000     0.00000000000000
