CRYSTAL
PRIMVEC
<<<<<<< HEAD
<<<<<<< HEAD
 -1.87785352110454 1.87785352110454 1.87785352110454
 1.87785352110454 -1.87785352110454 1.87785352110454
 1.87785352110454 1.87785352110454 -1.87785352110454
=======
 -1.87785350871802 1.87785350871802 1.87785350871802
 1.87785350871802 -1.87785350871802 1.87785350871802
 1.87785350871802 1.87785350871802 -1.87785350871802
>>>>>>> 7cc294e (Central volumes for PBE Z=97-103, and PBEsol and LDA for Z=1-103)
=======
 -1.87785352110454 1.87785352110454 1.87785352110454
 1.87785352110454 -1.87785352110454 1.87785352110454
 1.87785352110454 1.87785352110454 -1.87785352110454
>>>>>>> e84099c (Update new central volumes and add script for consistency checks)
PRIMCOORD
 1 1
 103     0.00000000000000     0.00000000000000     0.00000000000000
