CRYSTAL
PRIMVEC
<<<<<<< HEAD
 0.00000000000000 3.58905351028254 3.58905351028254
 3.58905351028254 0.00000000000000 3.58905351028254
 3.58905351028254 3.58905351028254 0.00000000000000
PRIMCOORD
 2 1
 103     0.00000000000000     0.00000000000000     0.00000000000000
 103     1.79452675514127     1.79452675514127     1.79452675514127
=======
 0.00000000000000 3.58905349682365 3.58905349682365
 3.58905349682365 0.00000000000000 3.58905349682365
 3.58905349682365 3.58905349682365 0.00000000000000
PRIMCOORD
 2 1
 103     0.00000000000000     0.00000000000000     0.00000000000000
 103     1.79452674841183     1.79452674841183     1.79452674841183
>>>>>>> 7cc294e (Central volumes for PBE Z=97-103, and PBEsol and LDA for Z=1-103)
