CRYSTAL
PRIMVEC
<<<<<<< HEAD
 0.00000000000000 2.35165833349593 2.35165833349593
 2.35165833349593 0.00000000000000 2.35165833349593
 2.35165833349593 2.35165833349593 0.00000000000000
=======
 0.00000000000000 2.35165833138540 2.35165833138540
 2.35165833138540 0.00000000000000 2.35165833138540
 2.35165833138540 2.35165833138540 0.00000000000000
>>>>>>> 7cc294e (Central volumes for PBE Z=97-103, and PBEsol and LDA for Z=1-103)
PRIMCOORD
 1 1
 103     0.00000000000000     0.00000000000000     0.00000000000000
