CRYSTAL
PRIMVEC
<<<<<<< HEAD
 3.09489320384380 0.00000000000000 0.00000000000000
 0.00000000000000 3.09489320384380 0.00000000000000
 0.00000000000000 0.00000000000000 3.09489320384380
=======
 3.09489319698517 0.00000000000000 0.00000000000000
 0.00000000000000 3.09489319698517 0.00000000000000
 0.00000000000000 0.00000000000000 3.09489319698517
>>>>>>> 7cc294e (Central volumes for PBE Z=97-103, and PBEsol and LDA for Z=1-103)
PRIMCOORD
 1 1
 103     0.00000000000000     0.00000000000000     0.00000000000000
