CRYSTAL
PRIMVEC
<<<<<<< HEAD
 0.00000000000000 3.43862613554439 3.43862613554439
 3.43862613554439 0.00000000000000 3.43862613554439
 3.43862613554439 3.43862613554439 0.00000000000000
PRIMCOORD
 2 1
 71     0.00000000000000     0.00000000000000     0.00000000000000
 71     1.71931306777220     1.71931306777220     1.71931306777220
=======
 0.00000000000000 3.43862611985679 3.43862611985679
 3.43862611985679 0.00000000000000 3.43862611985679
 3.43862611985679 3.43862611985679 0.00000000000000
PRIMCOORD
 2 1
 71     0.00000000000000     0.00000000000000     0.00000000000000
 71     1.71931305992839     1.71931305992839     1.71931305992839
>>>>>>> 7cc294e (Central volumes for PBE Z=97-103, and PBEsol and LDA for Z=1-103)
