CRYSTAL
PRIMVEC
<<<<<<< HEAD
 3.05157745069331 0.00000000000000 0.00000000000000
 0.00000000000000 3.05157745069331 0.00000000000000
 0.00000000000000 0.00000000000000 3.05157745069331
=======
 3.05157739269896 0.00000000000000 0.00000000000000
 0.00000000000000 3.05157739269896 0.00000000000000
 0.00000000000000 0.00000000000000 3.05157739269896
>>>>>>> 7cc294e (Central volumes for PBE Z=97-103, and PBEsol and LDA for Z=1-103)
PRIMCOORD
 1 1
 71     0.00000000000000     0.00000000000000     0.00000000000000
