CRYSTAL
PRIMVEC
<<<<<<< HEAD
 0.00000000000000 3.24044259897986 3.24044259897986
 3.24044259897986 0.00000000000000 3.24044259897986
 3.24044259897986 3.24044259897986 0.00000000000000
PRIMCOORD
 2 1
 101     0.00000000000000     0.00000000000000     0.00000000000000
 101     1.62022129948993     1.62022129948993     1.62022129948993
=======
 0.00000000000000 3.24044128484815 3.24044128484815
 3.24044128484815 0.00000000000000 3.24044128484815
 3.24044128484815 3.24044128484815 0.00000000000000
PRIMCOORD
 2 1
 101     0.00000000000000     0.00000000000000     0.00000000000000
 101     1.62022064242408     1.62022064242408     1.62022064242408
>>>>>>> 7cc294e (Central volumes for PBE Z=97-103, and PBEsol and LDA for Z=1-103)
