CRYSTAL
PRIMVEC
<<<<<<< HEAD
 0.00000000000000 2.32872861238593 2.32872861238593
 2.32872861238593 0.00000000000000 2.32872861238593
 2.32872861238593 2.32872861238593 0.00000000000000
=======
 0.00000000000000 2.32872769083533 2.32872769083533
 2.32872769083533 0.00000000000000 2.32872769083533
 2.32872769083533 2.32872769083533 0.00000000000000
>>>>>>> 7cc294e (Central volumes for PBE Z=97-103, and PBEsol and LDA for Z=1-103)
PRIMCOORD
 1 1
 101     0.00000000000000     0.00000000000000     0.00000000000000
