CRYSTAL
PRIMVEC
<<<<<<< HEAD
<<<<<<< HEAD
 2.98330079367647 0.00000000000000 0.00000000000000
 0.00000000000000 2.98330079367647 0.00000000000000
 0.00000000000000 0.00000000000000 2.98330079367647
=======
 2.98329978440180 0.00000000000000 0.00000000000000
 0.00000000000000 2.98329978440180 0.00000000000000
 0.00000000000000 0.00000000000000 2.98329978440180
>>>>>>> 7cc294e (Central volumes for PBE Z=97-103, and PBEsol and LDA for Z=1-103)
=======
 2.98330079367647 0.00000000000000 0.00000000000000
 0.00000000000000 2.98330079367647 0.00000000000000
 0.00000000000000 0.00000000000000 2.98330079367647
>>>>>>> e84099c (Update new central volumes and add script for consistency checks)
PRIMCOORD
 1 1
 101     0.00000000000000     0.00000000000000     0.00000000000000
