CRYSTAL
PRIMVEC
<<<<<<< HEAD
<<<<<<< HEAD
 -1.75429046108397 1.75429046108397 1.75429046108397
 1.75429046108397 -1.75429046108397 1.75429046108397
 1.75429046108397 1.75429046108397 -1.75429046108397
=======
 -1.75429036760603 1.75429036760603 1.75429036760603
 1.75429036760603 -1.75429036760603 1.75429036760603
 1.75429036760603 1.75429036760603 -1.75429036760603
>>>>>>> 7cc294e (Central volumes for PBE Z=97-103, and PBEsol and LDA for Z=1-103)
=======
 -1.75429046108397 1.75429046108397 1.75429046108397
 1.75429046108397 -1.75429046108397 1.75429046108397
 1.75429046108397 1.75429046108397 -1.75429046108397
>>>>>>> e84099c (Update new central volumes and add script for consistency checks)
PRIMCOORD
 1 1
 12     0.00000000000000     0.00000000000000     0.00000000000000
