CRYSTAL
PRIMVEC
<<<<<<< HEAD
<<<<<<< HEAD
 0.00000000000000 3.34836307362711 3.34836307362711
 3.34836307362711 0.00000000000000 3.34836307362711
 3.34836307362711 3.34836307362711 0.00000000000000
PRIMCOORD
 2 1
 12     0.00000000000000     0.00000000000000     0.00000000000000
 12     1.67418153681355     1.67418153681355     1.67418153681355
=======
 0.00000000000000 3.34836306161714 3.34836306161714
 3.34836306161714 0.00000000000000 3.34836306161714
 3.34836306161714 3.34836306161714 0.00000000000000
PRIMCOORD
 2 1
 12     0.00000000000000     0.00000000000000     0.00000000000000
 12     1.67418153080857     1.67418153080857     1.67418153080857
>>>>>>> 7cc294e (Central volumes for PBE Z=97-103, and PBEsol and LDA for Z=1-103)
=======
 0.00000000000000 3.34836307362711 3.34836307362711
 3.34836307362711 0.00000000000000 3.34836307362711
 3.34836307362711 3.34836307362711 0.00000000000000
PRIMCOORD
 2 1
 12     0.00000000000000     0.00000000000000     0.00000000000000
 12     1.67418153681355     1.67418153681355     1.67418153681355
>>>>>>> e84099c (Update new central volumes and add script for consistency checks)
