CRYSTAL
PRIMVEC
<<<<<<< HEAD
<<<<<<< HEAD
 2.96029571326213 0.00000000000000 0.00000000000000
 0.00000000000000 2.96029571326213 0.00000000000000
 0.00000000000000 0.00000000000000 2.96029571326213
=======
 2.96029569392660 0.00000000000000 0.00000000000000
 0.00000000000000 2.96029569392660 0.00000000000000
 0.00000000000000 0.00000000000000 2.96029569392660
>>>>>>> 7cc294e (Central volumes for PBE Z=97-103, and PBEsol and LDA for Z=1-103)
=======
 2.96029571326213 0.00000000000000 0.00000000000000
 0.00000000000000 2.96029571326213 0.00000000000000
 0.00000000000000 0.00000000000000 2.96029571326213
>>>>>>> e84099c (Update new central volumes and add script for consistency checks)
PRIMCOORD
 1 1
 12     0.00000000000000     0.00000000000000     0.00000000000000
