CRYSTAL
PRIMVEC
<<<<<<< HEAD
 -1.36238925149788 1.36238925149788 1.36238925149788
 1.36238925149788 -1.36238925149788 1.36238925149788
 1.36238925149788 1.36238925149788 -1.36238925149788
=======
 -1.36238924809195 1.36238924809195 1.36238924809195
 1.36238924809195 -1.36238924809195 1.36238924809195
 1.36238924809195 1.36238924809195 -1.36238924809195
>>>>>>> 7cc294e (Central volumes for PBE Z=97-103, and PBEsol and LDA for Z=1-103)
PRIMCOORD
 1 1
 25     0.00000000000000     0.00000000000000     0.00000000000000
