CRYSTAL
PRIMVEC
<<<<<<< HEAD
<<<<<<< HEAD
 0.00000000000000 2.41503145167575 2.41503145167575
 2.41503145167575 0.00000000000000 2.41503145167575
 2.41503145167575 2.41503145167575 0.00000000000000
PRIMCOORD
 2 1
 25     0.00000000000000     0.00000000000000     0.00000000000000
 25     1.20751572583787     1.20751572583787     1.20751572583787
=======
 0.00000000000000 2.41503144534940 2.41503144534940
 2.41503144534940 0.00000000000000 2.41503144534940
 2.41503144534940 2.41503144534940 0.00000000000000
PRIMCOORD
 2 1
 25     0.00000000000000     0.00000000000000     0.00000000000000
 25     1.20751572267470     1.20751572267470     1.20751572267470
>>>>>>> 7cc294e (Central volumes for PBE Z=97-103, and PBEsol and LDA for Z=1-103)
=======
 0.00000000000000 2.41503145167575 2.41503145167575
 2.41503145167575 0.00000000000000 2.41503145167575
 2.41503145167575 2.41503145167575 0.00000000000000
PRIMCOORD
 2 1
 25     0.00000000000000     0.00000000000000     0.00000000000000
 25     1.20751572583787     1.20751572583787     1.20751572583787
>>>>>>> e84099c (Update new central volumes and add script for consistency checks)
