CRYSTAL
PRIMVEC
<<<<<<< HEAD
 0.00000000000000 1.71476014676293 1.71476014676293
 1.71476014676293 0.00000000000000 1.71476014676293
 1.71476014676293 1.71476014676293 0.00000000000000
=======
 0.00000000000000 1.71476014034496 1.71476014034496
 1.71476014034496 0.00000000000000 1.71476014034496
 1.71476014034496 1.71476014034496 0.00000000000000
>>>>>>> 7cc294e (Central volumes for PBE Z=97-103, and PBEsol and LDA for Z=1-103)
PRIMCOORD
 1 1
 25     0.00000000000000     0.00000000000000     0.00000000000000
