CRYSTAL
PRIMVEC
<<<<<<< HEAD
 2.22872698271310 0.00000000000000 0.00000000000000
 0.00000000000000 2.22872698271310 0.00000000000000
 0.00000000000000 0.00000000000000 2.22872698271310
=======
 2.22872695416848 0.00000000000000 0.00000000000000
 0.00000000000000 2.22872695416848 0.00000000000000
 0.00000000000000 0.00000000000000 2.22872695416848
>>>>>>> 7cc294e (Central volumes for PBE Z=97-103, and PBEsol and LDA for Z=1-103)
PRIMCOORD
 1 1
 25     0.00000000000000     0.00000000000000     0.00000000000000
