CRYSTAL
PRIMVEC
<<<<<<< HEAD
<<<<<<< HEAD
 -1.55590964186173 1.55590964186173 1.55590964186173
 1.55590964186173 -1.55590964186173 1.55590964186173
 1.55590964186173 1.55590964186173 -1.55590964186173
=======
 -1.55590963886679 1.55590963886679 1.55590963886679
 1.55590963886679 -1.55590963886679 1.55590963886679
 1.55590963886679 1.55590963886679 -1.55590963886679
>>>>>>> 7cc294e (Central volumes for PBE Z=97-103, and PBEsol and LDA for Z=1-103)
=======
 -1.55590964186173 1.55590964186173 1.55590964186173
 1.55590964186173 -1.55590964186173 1.55590964186173
 1.55590964186173 1.55590964186173 -1.55590964186173
>>>>>>> e84099c (Update new central volumes and add script for consistency checks)
PRIMCOORD
 1 1
 42     0.00000000000000     0.00000000000000     0.00000000000000
