CRYSTAL
PRIMVEC
<<<<<<< HEAD
 0.00000000000000 2.78471381453217 2.78471381453217
 2.78471381453217 0.00000000000000 2.78471381453217
 2.78471381453217 2.78471381453217 0.00000000000000
PRIMCOORD
 2 1
 42     0.00000000000000     0.00000000000000     0.00000000000000
 42     1.39235690726608     1.39235690726608     1.39235690726608
=======
 0.00000000000000 2.78471380563859 2.78471380563859
 2.78471380563859 0.00000000000000 2.78471380563859
 2.78471380563859 2.78471380563859 0.00000000000000
PRIMCOORD
 2 1
 42     0.00000000000000     0.00000000000000     0.00000000000000
 42     1.39235690281929     1.39235690281929     1.39235690281929
>>>>>>> 7cc294e (Central volumes for PBE Z=97-103, and PBEsol and LDA for Z=1-103)
