CRYSTAL
PRIMVEC
<<<<<<< HEAD
 2.55507888082446 0.00000000000000 0.00000000000000
 0.00000000000000 2.55507888082446 0.00000000000000
 0.00000000000000 0.00000000000000 2.55507888082446
=======
 2.55507883565629 0.00000000000000 0.00000000000000
 0.00000000000000 2.55507883565629 0.00000000000000
 0.00000000000000 0.00000000000000 2.55507883565629
>>>>>>> 7cc294e (Central volumes for PBE Z=97-103, and PBEsol and LDA for Z=1-103)
PRIMCOORD
 1 1
 42     0.00000000000000     0.00000000000000     0.00000000000000
