CRYSTAL
PRIMVEC
<<<<<<< HEAD
<<<<<<< HEAD
 0.00000000000000 2.04625465963994 2.04625465963994
 2.04625465963994 0.00000000000000 2.04625465963994
 2.04625465963994 2.04625465963994 0.00000000000000
PRIMCOORD
 2 1
  7     0.00000000000000     0.00000000000000     0.00000000000000
  7     1.02312732981997     1.02312732981997     1.02312732981997
=======
 0.00000000000000 2.04625465776601 2.04625465776601
 2.04625465776601 0.00000000000000 2.04625465776601
 2.04625465776601 2.04625465776601 0.00000000000000
PRIMCOORD
 2 1
  7     0.00000000000000     0.00000000000000     0.00000000000000
  7     1.02312732888300     1.02312732888300     1.02312732888300
>>>>>>> 7cc294e (Central volumes for PBE Z=97-103, and PBEsol and LDA for Z=1-103)
=======
 0.00000000000000 2.04625465963994 2.04625465963994
 2.04625465963994 0.00000000000000 2.04625465963994
 2.04625465963994 2.04625465963994 0.00000000000000
PRIMCOORD
 2 1
  7     0.00000000000000     0.00000000000000     0.00000000000000
  7     1.02312732981997     1.02312732981997     1.02312732981997
>>>>>>> e84099c (Update new central volumes and add script for consistency checks)
