CRYSTAL
PRIMVEC
<<<<<<< HEAD
 0.00000000000000 1.52234700774095 1.52234700774095
 1.52234700774095 0.00000000000000 1.52234700774095
 1.52234700774095 1.52234700774095 0.00000000000000
=======
 0.00000000000000 1.52234700772286 1.52234700772286
 1.52234700772286 0.00000000000000 1.52234700772286
 1.52234700772286 1.52234700772286 0.00000000000000
>>>>>>> 7cc294e (Central volumes for PBE Z=97-103, and PBEsol and LDA for Z=1-103)
PRIMCOORD
 1 1
  7     0.00000000000000     0.00000000000000     0.00000000000000
