CRYSTAL
PRIMVEC
<<<<<<< HEAD
 1.81289373808021 0.00000000000000 0.00000000000000
 0.00000000000000 1.81289373808021 0.00000000000000
 0.00000000000000 0.00000000000000 1.81289373808021
=======
 1.81289365866470 0.00000000000000 0.00000000000000
 0.00000000000000 1.81289365866470 0.00000000000000
 0.00000000000000 0.00000000000000 1.81289365866470
>>>>>>> 7cc294e (Central volumes for PBE Z=97-103, and PBEsol and LDA for Z=1-103)
PRIMCOORD
 1 1
  7     0.00000000000000     0.00000000000000     0.00000000000000
