CRYSTAL
PRIMVEC
<<<<<<< HEAD
<<<<<<< HEAD
 -2.02662651027484 2.02662651027484 2.02662651027484
 2.02662651027484 -2.02662651027484 2.02662651027484
 2.02662651027484 2.02662651027484 -2.02662651027484
=======
 -2.02662650734670 2.02662650734670 2.02662650734670
 2.02662650734670 -2.02662650734670 2.02662650734670
 2.02662650734670 2.02662650734670 -2.02662650734670
>>>>>>> 7cc294e (Central volumes for PBE Z=97-103, and PBEsol and LDA for Z=1-103)
=======
 -2.02662651027484 2.02662651027484 2.02662651027484
 2.02662651027484 -2.02662651027484 2.02662651027484
 2.02662651027484 2.02662651027484 -2.02662651027484
>>>>>>> e84099c (Update new central volumes and add script for consistency checks)
PRIMCOORD
 1 1
 11     0.00000000000000     0.00000000000000     0.00000000000000
