CRYSTAL
PRIMVEC
<<<<<<< HEAD
 0.00000000000000 3.64730162082393 3.64730162082393
 3.64730162082393 0.00000000000000 3.64730162082393
 3.64730162082393 3.64730162082393 0.00000000000000
PRIMCOORD
 2 1
 11     0.00000000000000     0.00000000000000     0.00000000000000
 11     1.82365081041196     1.82365081041196     1.82365081041196
=======
 0.00000000000000 3.64730161320228 3.64730161320228
 3.64730161320228 0.00000000000000 3.64730161320228
 3.64730161320228 3.64730161320228 0.00000000000000
PRIMCOORD
 2 1
 11     0.00000000000000     0.00000000000000     0.00000000000000
 11     1.82365080660114     1.82365080660114     1.82365080660114
>>>>>>> 7cc294e (Central volumes for PBE Z=97-103, and PBEsol and LDA for Z=1-103)
