CRYSTAL
PRIMVEC
<<<<<<< HEAD
<<<<<<< HEAD
 3.29187914674322 0.00000000000000 0.00000000000000
 0.00000000000000 3.29187914674322 0.00000000000000
 0.00000000000000 0.00000000000000 3.29187914674322
=======
 3.29187898626496 0.00000000000000 0.00000000000000
 0.00000000000000 3.29187898626496 0.00000000000000
 0.00000000000000 0.00000000000000 3.29187898626496
>>>>>>> 7cc294e (Central volumes for PBE Z=97-103, and PBEsol and LDA for Z=1-103)
=======
 3.29187914674322 0.00000000000000 0.00000000000000
 0.00000000000000 3.29187914674322 0.00000000000000
 0.00000000000000 0.00000000000000 3.29187914674322
>>>>>>> e84099c (Update new central volumes and add script for consistency checks)
PRIMCOORD
 1 1
 11     0.00000000000000     0.00000000000000     0.00000000000000
