CRYSTAL
PRIMVEC
<<<<<<< HEAD
 -1.62376982231416 1.62376982231416 1.62376982231416
 1.62376982231416 -1.62376982231416 1.62376982231416
 1.62376982231416 1.62376982231416 -1.62376982231416
=======
 -1.62376981914260 1.62376981914260 1.62376981914260
 1.62376981914260 -1.62376981914260 1.62376981914260
 1.62376981914260 1.62376981914260 -1.62376981914260
>>>>>>> 7cc294e (Central volumes for PBE Z=97-103, and PBEsol and LDA for Z=1-103)
PRIMCOORD
 1 1
 41     0.00000000000000     0.00000000000000     0.00000000000000
