CRYSTAL
PRIMVEC
<<<<<<< HEAD
<<<<<<< HEAD
 0.00000000000000 2.87675882930152 2.87675882930152
 2.87675882930152 0.00000000000000 2.87675882930152
 2.87675882930152 2.87675882930152 0.00000000000000
PRIMCOORD
 2 1
 41     0.00000000000000     0.00000000000000     0.00000000000000
 41     1.43837941465076     1.43837941465076     1.43837941465076
=======
 0.00000000000000 2.87675881665290 2.87675881665290
 2.87675881665290 0.00000000000000 2.87675881665290
 2.87675881665290 2.87675881665290 0.00000000000000
PRIMCOORD
 2 1
 41     0.00000000000000     0.00000000000000     0.00000000000000
 41     1.43837940832645     1.43837940832645     1.43837940832645
>>>>>>> 7cc294e (Central volumes for PBE Z=97-103, and PBEsol and LDA for Z=1-103)
=======
 0.00000000000000 2.87675882930152 2.87675882930152
 2.87675882930152 0.00000000000000 2.87675882930152
 2.87675882930152 2.87675882930152 0.00000000000000
PRIMCOORD
 2 1
 41     0.00000000000000     0.00000000000000     0.00000000000000
 41     1.43837941465076     1.43837941465076     1.43837941465076
>>>>>>> e84099c (Update new central volumes and add script for consistency checks)
