CRYSTAL
PRIMVEC
<<<<<<< HEAD
<<<<<<< HEAD
 2.66366560780964 0.00000000000000 0.00000000000000
 0.00000000000000 2.66366560780964 0.00000000000000
 0.00000000000000 0.00000000000000 2.66366560780964
=======
 2.66366553641411 0.00000000000000 0.00000000000000
 0.00000000000000 2.66366553641411 0.00000000000000
 0.00000000000000 0.00000000000000 2.66366553641411
>>>>>>> 7cc294e (Central volumes for PBE Z=97-103, and PBEsol and LDA for Z=1-103)
=======
 2.66366560780964 0.00000000000000 0.00000000000000
 0.00000000000000 2.66366560780964 0.00000000000000
 0.00000000000000 0.00000000000000 2.66366560780964
>>>>>>> e84099c (Update new central volumes and add script for consistency checks)
PRIMCOORD
 1 1
 41     0.00000000000000     0.00000000000000     0.00000000000000
