CRYSTAL
PRIMVEC
<<<<<<< HEAD
<<<<<<< HEAD
 -1.63613662847970 1.63613662847970 1.63613662847970
 1.63613662847970 -1.63613662847970 1.63613662847970
 1.63613662847970 1.63613662847970 -1.63613662847970
=======
 -1.63613662820957 1.63613662820957 1.63613662820957
 1.63613662820957 -1.63613662820957 1.63613662820957
 1.63613662820957 1.63613662820957 -1.63613662820957
>>>>>>> 7cc294e (Central volumes for PBE Z=97-103, and PBEsol and LDA for Z=1-103)
=======
 -1.63613662847970 1.63613662847970 1.63613662847970
 1.63613662847970 -1.63613662847970 1.63613662847970
 1.63613662847970 1.63613662847970 -1.63613662847970
>>>>>>> e84099c (Update new central volumes and add script for consistency checks)
PRIMCOORD
 1 1
 60     0.00000000000000     0.00000000000000     0.00000000000000
