CRYSTAL
PRIMVEC
<<<<<<< HEAD
 0.00000000000000 2.80462617915540 2.80462617915540
 2.80462617915540 0.00000000000000 2.80462617915540
 2.80462617915540 2.80462617915540 0.00000000000000
PRIMCOORD
 2 1
 60     0.00000000000000     0.00000000000000     0.00000000000000
 60     1.40231308957770     1.40231308957770     1.40231308957770
=======
 0.00000000000000 2.80462617442483 2.80462617442483
 2.80462617442483 0.00000000000000 2.80462617442483
 2.80462617442483 2.80462617442483 0.00000000000000
PRIMCOORD
 2 1
 60     0.00000000000000     0.00000000000000     0.00000000000000
 60     1.40231308721241     1.40231308721241     1.40231308721241
>>>>>>> 7cc294e (Central volumes for PBE Z=97-103, and PBEsol and LDA for Z=1-103)
