CRYSTAL
PRIMVEC
<<<<<<< HEAD
 2.55118784582597 0.00000000000000 0.00000000000000
 0.00000000000000 2.55118784582597 0.00000000000000
 0.00000000000000 0.00000000000000 2.55118784582597
=======
 2.55118784383365 0.00000000000000 0.00000000000000
 0.00000000000000 2.55118784383365 0.00000000000000
 0.00000000000000 0.00000000000000 2.55118784383365
>>>>>>> 7cc294e (Central volumes for PBE Z=97-103, and PBEsol and LDA for Z=1-103)
PRIMCOORD
 1 1
 60     0.00000000000000     0.00000000000000     0.00000000000000
