CRYSTAL
PRIMVEC
<<<<<<< HEAD
<<<<<<< HEAD
 -1.54053322061669 1.54053322061669 1.54053322061669
 1.54053322061669 -1.54053322061669 1.54053322061669
 1.54053322061669 1.54053322061669 -1.54053322061669
=======
 -1.54053320726160 1.54053320726160 1.54053320726160
 1.54053320726160 -1.54053320726160 1.54053320726160
 1.54053320726160 1.54053320726160 -1.54053320726160
>>>>>>> 7cc294e (Central volumes for PBE Z=97-103, and PBEsol and LDA for Z=1-103)
=======
 -1.54053322061669 1.54053322061669 1.54053322061669
 1.54053322061669 -1.54053322061669 1.54053322061669
 1.54053322061669 1.54053322061669 -1.54053322061669
>>>>>>> e84099c (Update new central volumes and add script for consistency checks)
PRIMCOORD
 1 1
 10     0.00000000000000     0.00000000000000     0.00000000000000
