CRYSTAL
PRIMVEC
<<<<<<< HEAD
 0.00000000000000 3.03494315153818 3.03494315153818
 3.03494315153818 0.00000000000000 3.03494315153818
 3.03494315153818 3.03494315153818 0.00000000000000
PRIMCOORD
 2 1
 10     0.00000000000000     0.00000000000000     0.00000000000000
 10     1.51747157576909     1.51747157576909     1.51747157576909
=======
 0.00000000000000 3.03494312536111 3.03494312536111
 3.03494312536111 0.00000000000000 3.03494312536111
 3.03494312536111 3.03494312536111 0.00000000000000
PRIMCOORD
 2 1
 10     0.00000000000000     0.00000000000000     0.00000000000000
 10     1.51747156268055     1.51747156268055     1.51747156268055
>>>>>>> 7cc294e (Central volumes for PBE Z=97-103, and PBEsol and LDA for Z=1-103)
