CRYSTAL
PRIMVEC
<<<<<<< HEAD
<<<<<<< HEAD
 2.63639221790405 0.00000000000000 0.00000000000000
 0.00000000000000 2.63639221790405 0.00000000000000
 0.00000000000000 0.00000000000000 2.63639221790405
=======
 2.63639218842157 0.00000000000000 0.00000000000000
 0.00000000000000 2.63639218842157 0.00000000000000
 0.00000000000000 0.00000000000000 2.63639218842157
>>>>>>> 7cc294e (Central volumes for PBE Z=97-103, and PBEsol and LDA for Z=1-103)
=======
 2.63639221790405 0.00000000000000 0.00000000000000
 0.00000000000000 2.63639221790405 0.00000000000000
 0.00000000000000 0.00000000000000 2.63639221790405
>>>>>>> e84099c (Update new central volumes and add script for consistency checks)
PRIMCOORD
 1 1
 10     0.00000000000000     0.00000000000000     0.00000000000000
