CRYSTAL
PRIMVEC
<<<<<<< HEAD
<<<<<<< HEAD
 -1.35913669006339 1.35913669006339 1.35913669006339
 1.35913669006339 -1.35913669006339 1.35913669006339
 1.35913669006339 1.35913669006339 -1.35913669006339
=======
 -1.35913668846975 1.35913668846975 1.35913668846975
 1.35913668846975 -1.35913668846975 1.35913668846975
 1.35913668846975 1.35913668846975 -1.35913668846975
>>>>>>> 7cc294e (Central volumes for PBE Z=97-103, and PBEsol and LDA for Z=1-103)
=======
 -1.35913669006339 1.35913669006339 1.35913669006339
 1.35913669006339 -1.35913669006339 1.35913669006339
 1.35913669006339 1.35913669006339 -1.35913669006339
>>>>>>> e84099c (Update new central volumes and add script for consistency checks)
PRIMCOORD
 1 1
 28     0.00000000000000     0.00000000000000     0.00000000000000
