CRYSTAL
PRIMVEC
<<<<<<< HEAD
<<<<<<< HEAD
 0.00000000000000 2.46685434333350 2.46685434333350
 2.46685434333350 0.00000000000000 2.46685434333350
 2.46685434333350 2.46685434333350 0.00000000000000
PRIMCOORD
 2 1
 28     0.00000000000000     0.00000000000000     0.00000000000000
 28     1.23342717166675     1.23342717166675     1.23342717166675
=======
 0.00000000000000 2.46685430447488 2.46685430447488
 2.46685430447488 0.00000000000000 2.46685430447488
 2.46685430447488 2.46685430447488 0.00000000000000
PRIMCOORD
 2 1
 28     0.00000000000000     0.00000000000000     0.00000000000000
 28     1.23342715223744     1.23342715223744     1.23342715223744
>>>>>>> 7cc294e (Central volumes for PBE Z=97-103, and PBEsol and LDA for Z=1-103)
=======
 0.00000000000000 2.46685434333350 2.46685434333350
 2.46685434333350 0.00000000000000 2.46685434333350
 2.46685434333350 2.46685434333350 0.00000000000000
PRIMCOORD
 2 1
 28     0.00000000000000     0.00000000000000     0.00000000000000
 28     1.23342717166675     1.23342717166675     1.23342717166675
>>>>>>> e84099c (Update new central volumes and add script for consistency checks)
