CRYSTAL
PRIMVEC
<<<<<<< HEAD
 0.00000000000000 1.70946893581966 1.70946893581966
 1.70946893581966 0.00000000000000 1.70946893581966
 1.70946893581966 1.70946893581966 0.00000000000000
=======
 0.00000000000000 1.70946893380443 1.70946893380443
 1.70946893380443 0.00000000000000 1.70946893380443
 1.70946893380443 1.70946893380443 0.00000000000000
>>>>>>> 7cc294e (Central volumes for PBE Z=97-103, and PBEsol and LDA for Z=1-103)
PRIMCOORD
 1 1
 28     0.00000000000000     0.00000000000000     0.00000000000000
