CRYSTAL
PRIMVEC
<<<<<<< HEAD
 -1.97434908393278 1.97434908393278 1.97434908393278
 1.97434908393278 -1.97434908393278 1.97434908393278
 1.97434908393278 1.97434908393278 -1.97434908393278
=======
 -1.97434873715252 1.97434873715252 1.97434873715252
 1.97434873715252 -1.97434873715252 1.97434873715252
 1.97434873715252 1.97434873715252 -1.97434873715252
>>>>>>> 7cc294e (Central volumes for PBE Z=97-103, and PBEsol and LDA for Z=1-103)
PRIMCOORD
 1 1
 102     0.00000000000000     0.00000000000000     0.00000000000000
