CRYSTAL
PRIMVEC
<<<<<<< HEAD
 0.00000000000000 4.34799178669197 4.34799178669197
 4.34799178669197 0.00000000000000 4.34799178669197
 4.34799178669197 4.34799178669197 0.00000000000000
PRIMCOORD
 2 1
 102     0.00000000000000     0.00000000000000     0.00000000000000
 102     2.17399589334598     2.17399589334598     2.17399589334598
=======
 0.00000000000000 4.34799124283376 4.34799124283376
 4.34799124283376 0.00000000000000 4.34799124283376
 4.34799124283376 4.34799124283376 0.00000000000000
PRIMCOORD
 2 1
 102     0.00000000000000     0.00000000000000     0.00000000000000
 102     2.17399562141688     2.17399562141688     2.17399562141688
>>>>>>> 7cc294e (Central volumes for PBE Z=97-103, and PBEsol and LDA for Z=1-103)
