CRYSTAL
PRIMVEC
<<<<<<< HEAD
 0.00000000000000 2.49988521137872 2.49988521137872
 2.49988521137872 0.00000000000000 2.49988521137872
 2.49988521137872 2.49988521137872 0.00000000000000
=======
 0.00000000000000 2.49988459969720 2.49988459969720
 2.49988459969720 0.00000000000000 2.49988459969720
 2.49988459969720 2.49988459969720 0.00000000000000
>>>>>>> 7cc294e (Central volumes for PBE Z=97-103, and PBEsol and LDA for Z=1-103)
PRIMCOORD
 1 1
 102     0.00000000000000     0.00000000000000     0.00000000000000
