CRYSTAL
PRIMVEC
<<<<<<< HEAD
 3.23627727401856 0.00000000000000 0.00000000000000
 0.00000000000000 3.23627727401856 0.00000000000000
 0.00000000000000 0.00000000000000 3.23627727401856
=======
 3.23627618624150 0.00000000000000 0.00000000000000
 0.00000000000000 3.23627618624150 0.00000000000000
 0.00000000000000 0.00000000000000 3.23627618624150
>>>>>>> 7cc294e (Central volumes for PBE Z=97-103, and PBEsol and LDA for Z=1-103)
PRIMCOORD
 1 1
 102     0.00000000000000     0.00000000000000     0.00000000000000
