CRYSTAL
PRIMVEC
<<<<<<< HEAD
 -1.60673978183173 1.60673978183173 1.60673978183173
 1.60673978183173 -1.60673978183173 1.60673978183173
 1.60673978183173 1.60673978183173 -1.60673978183173
=======
 -1.60673976501381 1.60673976501381 1.60673976501381
 1.60673976501381 -1.60673976501381 1.60673976501381
 1.60673976501381 1.60673976501381 -1.60673976501381
>>>>>>> 7cc294e (Central volumes for PBE Z=97-103, and PBEsol and LDA for Z=1-103)
PRIMCOORD
 1 1
 93     0.00000000000000     0.00000000000000     0.00000000000000
