CRYSTAL
PRIMVEC
<<<<<<< HEAD
<<<<<<< HEAD
 0.00000000000000 2.73756269330491 2.73756269330491
 2.73756269330491 0.00000000000000 2.73756269330491
 2.73756269330491 2.73756269330491 0.00000000000000
PRIMCOORD
 2 1
 93     0.00000000000000     0.00000000000000     0.00000000000000
 93     1.36878134665245     1.36878134665245     1.36878134665245
=======
 0.00000000000000 2.73756258093178 2.73756258093178
 2.73756258093178 0.00000000000000 2.73756258093178
 2.73756258093178 2.73756258093178 0.00000000000000
PRIMCOORD
 2 1
 93     0.00000000000000     0.00000000000000     0.00000000000000
 93     1.36878129046589     1.36878129046589     1.36878129046589
>>>>>>> 7cc294e (Central volumes for PBE Z=97-103, and PBEsol and LDA for Z=1-103)
=======
 0.00000000000000 2.73756269330491 2.73756269330491
 2.73756269330491 0.00000000000000 2.73756269330491
 2.73756269330491 2.73756269330491 0.00000000000000
PRIMCOORD
 2 1
 93     0.00000000000000     0.00000000000000     0.00000000000000
 93     1.36878134665245     1.36878134665245     1.36878134665245
>>>>>>> e84099c (Update new central volumes and add script for consistency checks)
