CRYSTAL
PRIMVEC
<<<<<<< HEAD
<<<<<<< HEAD
 2.53426064147167 0.00000000000000 0.00000000000000
 0.00000000000000 2.53426064147167 0.00000000000000
 0.00000000000000 0.00000000000000 2.53426064147167
=======
 2.53426058027779 0.00000000000000 0.00000000000000
 0.00000000000000 2.53426058027779 0.00000000000000
 0.00000000000000 0.00000000000000 2.53426058027779
>>>>>>> 7cc294e (Central volumes for PBE Z=97-103, and PBEsol and LDA for Z=1-103)
=======
 2.53426064147167 0.00000000000000 0.00000000000000
 0.00000000000000 2.53426064147167 0.00000000000000
 0.00000000000000 0.00000000000000 2.53426064147167
>>>>>>> e84099c (Update new central volumes and add script for consistency checks)
PRIMCOORD
 1 1
 93     0.00000000000000     0.00000000000000     0.00000000000000
