CRYSTAL
PRIMVEC
<<<<<<< HEAD
 0.00000000000000 2.14501853975518 2.14501853975518
 2.14501853975518 0.00000000000000 2.14501853975518
 2.14501853975518 2.14501853975518 0.00000000000000
PRIMCOORD
 2 1
  8     0.00000000000000     0.00000000000000     0.00000000000000
  8     1.07250926987759     1.07250926987759     1.07250926987759
=======
 0.00000000000000 2.14501853934543 2.14501853934543
 2.14501853934543 0.00000000000000 2.14501853934543
 2.14501853934543 2.14501853934543 0.00000000000000
PRIMCOORD
 2 1
  8     0.00000000000000     0.00000000000000     0.00000000000000
  8     1.07250926967271     1.07250926967271     1.07250926967271
>>>>>>> 7cc294e (Central volumes for PBE Z=97-103, and PBEsol and LDA for Z=1-103)
