CRYSTAL
PRIMVEC
<<<<<<< HEAD
<<<<<<< HEAD
 1.93998061914325 0.00000000000000 0.00000000000000
 0.00000000000000 1.93998061914325 0.00000000000000
 0.00000000000000 0.00000000000000 1.93998061914325
=======
 1.93998057780859 0.00000000000000 0.00000000000000
 0.00000000000000 1.93998057780859 0.00000000000000
 0.00000000000000 0.00000000000000 1.93998057780859
>>>>>>> 7cc294e (Central volumes for PBE Z=97-103, and PBEsol and LDA for Z=1-103)
=======
 1.93998061914325 0.00000000000000 0.00000000000000
 0.00000000000000 1.93998061914325 0.00000000000000
 0.00000000000000 0.00000000000000 1.93998061914325
>>>>>>> e84099c (Update new central volumes and add script for consistency checks)
PRIMCOORD
 1 1
  8     0.00000000000000     0.00000000000000     0.00000000000000
