CRYSTAL
PRIMVEC
<<<<<<< HEAD
 -1.52367101543770 1.52367101543770 1.52367101543770
 1.52367101543770 -1.52367101543770 1.52367101543770
 1.52367101543770 1.52367101543770 -1.52367101543770
=======
 -1.52367101379070 1.52367101379070 1.52367101379070
 1.52367101379070 -1.52367101379070 1.52367101379070
 1.52367101379070 1.52367101379070 -1.52367101379070
>>>>>>> 7cc294e (Central volumes for PBE Z=97-103, and PBEsol and LDA for Z=1-103)
PRIMCOORD
 1 1
 76     0.00000000000000     0.00000000000000     0.00000000000000
