CRYSTAL
PRIMVEC
<<<<<<< HEAD
 0.00000000000000 2.73658943612362 2.73658943612362
 2.73658943612362 0.00000000000000 2.73658943612362
 2.73658943612362 2.73658943612362 0.00000000000000
PRIMCOORD
 2 1
 76     0.00000000000000     0.00000000000000     0.00000000000000
 76     1.36829471806181     1.36829471806181     1.36829471806181
=======
 0.00000000000000 2.73658939883630 2.73658939883630
 2.73658939883630 0.00000000000000 2.73658939883630
 2.73658939883630 2.73658939883630 0.00000000000000
PRIMCOORD
 2 1
 76     0.00000000000000     0.00000000000000     0.00000000000000
 76     1.36829469941815     1.36829469941815     1.36829469941815
>>>>>>> 7cc294e (Central volumes for PBE Z=97-103, and PBEsol and LDA for Z=1-103)
