CRYSTAL
PRIMVEC
<<<<<<< HEAD
 2.51708188872581 0.00000000000000 0.00000000000000
 0.00000000000000 2.51708188872581 0.00000000000000
 0.00000000000000 0.00000000000000 2.51708188872581
=======
 2.51708185721888 0.00000000000000 0.00000000000000
 0.00000000000000 2.51708185721888 0.00000000000000
 0.00000000000000 0.00000000000000 2.51708185721888
>>>>>>> 7cc294e (Central volumes for PBE Z=97-103, and PBEsol and LDA for Z=1-103)
PRIMCOORD
 1 1
 76     0.00000000000000     0.00000000000000     0.00000000000000
