CRYSTAL
PRIMVEC
<<<<<<< HEAD
 -1.50330219739722 1.50330219739722 1.50330219739722
 1.50330219739722 -1.50330219739722 1.50330219739722
 1.50330219739722 1.50330219739722 -1.50330219739722
=======
 -1.50330219695381 1.50330219695381 1.50330219695381
 1.50330219695381 -1.50330219695381 1.50330219695381
 1.50330219695381 1.50330219695381 -1.50330219695381
>>>>>>> 7cc294e (Central volumes for PBE Z=97-103, and PBEsol and LDA for Z=1-103)
PRIMCOORD
 1 1
 15     0.00000000000000     0.00000000000000     0.00000000000000
