CRYSTAL
PRIMVEC
<<<<<<< HEAD
 0.00000000000000 2.67212955600038 2.67212955600038
 2.67212955600038 0.00000000000000 2.67212955600038
 2.67212955600038 2.67212955600038 0.00000000000000
PRIMCOORD
 2 1
 15     0.00000000000000     0.00000000000000     0.00000000000000
 15     1.33606477800019     1.33606477800019     1.33606477800019
=======
 0.00000000000000 2.67212948133907 2.67212948133907
 2.67212948133907 0.00000000000000 2.67212948133907
 2.67212948133907 2.67212948133907 0.00000000000000
PRIMCOORD
 2 1
 15     0.00000000000000     0.00000000000000     0.00000000000000
 15     1.33606474066954     1.33606474066954     1.33606474066954
>>>>>>> 7cc294e (Central volumes for PBE Z=97-103, and PBEsol and LDA for Z=1-103)
