CRYSTAL
PRIMVEC
<<<<<<< HEAD
<<<<<<< HEAD
 2.41367929741175 0.00000000000000 0.00000000000000
 0.00000000000000 2.41367929741175 0.00000000000000
 0.00000000000000 0.00000000000000 2.41367929741175
=======
 2.41367895835687 0.00000000000000 0.00000000000000
 0.00000000000000 2.41367895835687 0.00000000000000
 0.00000000000000 0.00000000000000 2.41367895835687
>>>>>>> 7cc294e (Central volumes for PBE Z=97-103, and PBEsol and LDA for Z=1-103)
=======
 2.41367929741175 0.00000000000000 0.00000000000000
 0.00000000000000 2.41367929741175 0.00000000000000
 0.00000000000000 0.00000000000000 2.41367929741175
>>>>>>> e84099c (Update new central volumes and add script for consistency checks)
PRIMCOORD
 1 1
 15     0.00000000000000     0.00000000000000     0.00000000000000
