CRYSTAL
PRIMVEC
<<<<<<< HEAD
 0.00000000000000 3.05831373379666 3.05831373379666
 3.05831373379666 0.00000000000000 3.05831373379666
 3.05831373379666 3.05831373379666 0.00000000000000
PRIMCOORD
 2 1
 91     0.00000000000000     0.00000000000000     0.00000000000000
 91     1.52915686689833     1.52915686689833     1.52915686689833
=======
 0.00000000000000 3.05831345225336 3.05831345225336
 3.05831345225336 0.00000000000000 3.05831345225336
 3.05831345225336 3.05831345225336 0.00000000000000
PRIMCOORD
 2 1
 91     0.00000000000000     0.00000000000000     0.00000000000000
 91     1.52915672612668     1.52915672612668     1.52915672612668
>>>>>>> 7cc294e (Central volumes for PBE Z=97-103, and PBEsol and LDA for Z=1-103)
