CRYSTAL
PRIMVEC
<<<<<<< HEAD
 0.00000000000000 2.27327522003824 2.27327522003824
 2.27327522003824 0.00000000000000 2.27327522003824
 2.27327522003824 2.27327522003824 0.00000000000000
=======
 0.00000000000000 2.27327514695061 2.27327514695061
 2.27327514695061 0.00000000000000 2.27327514695061
 2.27327514695061 2.27327514695061 0.00000000000000
>>>>>>> 7cc294e (Central volumes for PBE Z=97-103, and PBEsol and LDA for Z=1-103)
PRIMCOORD
 1 1
 91     0.00000000000000     0.00000000000000     0.00000000000000
