CRYSTAL
PRIMVEC
<<<<<<< HEAD
 2.80043626402446 0.00000000000000 0.00000000000000
 0.00000000000000 2.80043626402446 0.00000000000000
 0.00000000000000 0.00000000000000 2.80043626402446
=======
 2.80043603679075 0.00000000000000 0.00000000000000
 0.00000000000000 2.80043603679075 0.00000000000000
 0.00000000000000 0.00000000000000 2.80043603679075
>>>>>>> 7cc294e (Central volumes for PBE Z=97-103, and PBEsol and LDA for Z=1-103)
PRIMCOORD
 1 1
 91     0.00000000000000     0.00000000000000     0.00000000000000
