CRYSTAL
PRIMVEC
<<<<<<< HEAD
 -1.93454359198293 1.93454359198293 1.93454359198293
 1.93454359198293 -1.93454359198293 1.93454359198293
 1.93454359198293 1.93454359198293 -1.93454359198293
=======
 -1.93454358535273 1.93454358535273 1.93454358535273
 1.93454358535273 -1.93454358535273 1.93454358535273
 1.93454358535273 1.93454358535273 -1.93454358535273
>>>>>>> 7cc294e (Central volumes for PBE Z=97-103, and PBEsol and LDA for Z=1-103)
PRIMCOORD
 1 1
 82     0.00000000000000     0.00000000000000     0.00000000000000
