CRYSTAL
PRIMVEC
<<<<<<< HEAD
<<<<<<< HEAD
 0.00000000000000 3.41486755042062 3.41486755042062
 3.41486755042062 0.00000000000000 3.41486755042062
 3.41486755042062 3.41486755042062 0.00000000000000
PRIMCOORD
 2 1
 82     0.00000000000000     0.00000000000000     0.00000000000000
 82     1.70743377521031     1.70743377521031     1.70743377521031
=======
 0.00000000000000 3.41486754577195 3.41486754577195
 3.41486754577195 0.00000000000000 3.41486754577195
 3.41486754577195 3.41486754577195 0.00000000000000
PRIMCOORD
 2 1
 82     0.00000000000000     0.00000000000000     0.00000000000000
 82     1.70743377288597     1.70743377288597     1.70743377288597
>>>>>>> 7cc294e (Central volumes for PBE Z=97-103, and PBEsol and LDA for Z=1-103)
=======
 0.00000000000000 3.41486755042062 3.41486755042062
 3.41486755042062 0.00000000000000 3.41486755042062
 3.41486755042062 3.41486755042062 0.00000000000000
PRIMCOORD
 2 1
 82     0.00000000000000     0.00000000000000     0.00000000000000
 82     1.70743377521031     1.70743377521031     1.70743377521031
>>>>>>> e84099c (Update new central volumes and add script for consistency checks)
