CRYSTAL
PRIMVEC
<<<<<<< HEAD
 0.00000000000000 2.44069722339725 2.44069722339725
 2.44069722339725 0.00000000000000 2.44069722339725
 2.44069722339725 2.44069722339725 0.00000000000000
=======
 0.00000000000000 2.44069721889855 2.44069721889855
 2.44069721889855 0.00000000000000 2.44069721889855
 2.44069721889855 2.44069721889855 0.00000000000000
>>>>>>> 7cc294e (Central volumes for PBE Z=97-103, and PBEsol and LDA for Z=1-103)
PRIMCOORD
 1 1
 82     0.00000000000000     0.00000000000000     0.00000000000000
