CRYSTAL
PRIMVEC
<<<<<<< HEAD
<<<<<<< HEAD
 3.14822466766475 0.00000000000000 0.00000000000000
 0.00000000000000 3.14822466766475 0.00000000000000
 0.00000000000000 0.00000000000000 3.14822466766475
=======
 3.14822465360971 0.00000000000000 0.00000000000000
 0.00000000000000 3.14822465360971 0.00000000000000
 0.00000000000000 0.00000000000000 3.14822465360971
>>>>>>> 7cc294e (Central volumes for PBE Z=97-103, and PBEsol and LDA for Z=1-103)
=======
 3.14822466766475 0.00000000000000 0.00000000000000
 0.00000000000000 3.14822466766475 0.00000000000000
 0.00000000000000 0.00000000000000 3.14822466766475
>>>>>>> e84099c (Update new central volumes and add script for consistency checks)
PRIMCOORD
 1 1
 82     0.00000000000000     0.00000000000000     0.00000000000000
