CRYSTAL
PRIMVEC
<<<<<<< HEAD
<<<<<<< HEAD
 0.00000000000000 2.80821871597469 2.80821871597469
 2.80821871597469 0.00000000000000 2.80821871597469
 2.80821871597469 2.80821871597469 0.00000000000000
PRIMCOORD
 2 1
 46     0.00000000000000     0.00000000000000     0.00000000000000
 46     1.40410935798735     1.40410935798735     1.40410935798735
=======
 0.00000000000000 2.80821868749112 2.80821868749112
 2.80821868749112 0.00000000000000 2.80821868749112
 2.80821868749112 2.80821868749112 0.00000000000000
PRIMCOORD
 2 1
 46     0.00000000000000     0.00000000000000     0.00000000000000
 46     1.40410934374556     1.40410934374556     1.40410934374556
>>>>>>> 7cc294e (Central volumes for PBE Z=97-103, and PBEsol and LDA for Z=1-103)
=======
 0.00000000000000 2.80821871597469 2.80821871597469
 2.80821871597469 0.00000000000000 2.80821871597469
 2.80821871597469 2.80821871597469 0.00000000000000
PRIMCOORD
 2 1
 46     0.00000000000000     0.00000000000000     0.00000000000000
 46     1.40410935798735     1.40410935798735     1.40410935798735
>>>>>>> e84099c (Update new central volumes and add script for consistency checks)
