CRYSTAL
PRIMVEC
<<<<<<< HEAD
 2.53918908166000 0.00000000000000 0.00000000000000
 0.00000000000000 2.53918908166000 0.00000000000000
 0.00000000000000 0.00000000000000 2.53918908166000
=======
 2.53918907887748 0.00000000000000 0.00000000000000
 0.00000000000000 2.53918907887748 0.00000000000000
 0.00000000000000 0.00000000000000 2.53918907887748
>>>>>>> 7cc294e (Central volumes for PBE Z=97-103, and PBEsol and LDA for Z=1-103)
PRIMCOORD
 1 1
 46     0.00000000000000     0.00000000000000     0.00000000000000
