CRYSTAL
PRIMVEC
<<<<<<< HEAD
 -1.60523160665426 1.60523160665426 1.60523160665426
 1.60523160665426 -1.60523160665426 1.60523160665426
 1.60523160665426 1.60523160665426 -1.60523160665426
=======
 -1.60523160615609 1.60523160615609 1.60523160615609
 1.60523160615609 -1.60523160615609 1.60523160615609
 1.60523160615609 1.60523160615609 -1.60523160615609
>>>>>>> 7cc294e (Central volumes for PBE Z=97-103, and PBEsol and LDA for Z=1-103)
PRIMCOORD
 1 1
 61     0.00000000000000     0.00000000000000     0.00000000000000
