CRYSTAL
PRIMVEC
<<<<<<< HEAD
 0.00000000000000 2.72389659913566 2.72389659913566
 2.72389659913566 0.00000000000000 2.72389659913566
 2.72389659913566 2.72389659913566 0.00000000000000
PRIMCOORD
 2 1
 61     0.00000000000000     0.00000000000000     0.00000000000000
 61     1.36194829956783     1.36194829956783     1.36194829956783
=======
 0.00000000000000 2.72389658966094 2.72389658966094
 2.72389658966094 0.00000000000000 2.72389658966094
 2.72389658966094 2.72389658966094 0.00000000000000
PRIMCOORD
 2 1
 61     0.00000000000000     0.00000000000000     0.00000000000000
 61     1.36194829483047     1.36194829483047     1.36194829483047
>>>>>>> 7cc294e (Central volumes for PBE Z=97-103, and PBEsol and LDA for Z=1-103)
