CRYSTAL
PRIMVEC
<<<<<<< HEAD
 0.00000000000000 2.09178539521531 2.09178539521531
 2.09178539521531 0.00000000000000 2.09178539521531
 2.09178539521531 2.09178539521531 0.00000000000000
=======
 0.00000000000000 2.09178539073918 2.09178539073918
 2.09178539073918 0.00000000000000 2.09178539073918
 2.09178539073918 2.09178539073918 0.00000000000000
>>>>>>> 7cc294e (Central volumes for PBE Z=97-103, and PBEsol and LDA for Z=1-103)
PRIMCOORD
 1 1
 61     0.00000000000000     0.00000000000000     0.00000000000000
