CRYSTAL
PRIMVEC
<<<<<<< HEAD
 2.50805368398575 0.00000000000000 0.00000000000000
 0.00000000000000 2.50805368398575 0.00000000000000
 0.00000000000000 0.00000000000000 2.50805368398575
=======
 2.50805368218153 0.00000000000000 0.00000000000000
 0.00000000000000 2.50805368218153 0.00000000000000
 0.00000000000000 0.00000000000000 2.50805368218153
>>>>>>> 7cc294e (Central volumes for PBE Z=97-103, and PBEsol and LDA for Z=1-103)
PRIMCOORD
 1 1
 61     0.00000000000000     0.00000000000000     0.00000000000000
