CRYSTAL
PRIMVEC
<<<<<<< HEAD
 -1.97043143102618 1.97043143102618 1.97043143102618
 1.97043143102618 -1.97043143102618 1.97043143102618
 1.97043143102618 1.97043143102618 -1.97043143102618
=======
 -1.97043133387583 1.97043133387583 1.97043133387583
 1.97043133387583 -1.97043133387583 1.97043133387583
 1.97043133387583 1.97043133387583 -1.97043133387583
>>>>>>> 7cc294e (Central volumes for PBE Z=97-103, and PBEsol and LDA for Z=1-103)
PRIMCOORD
 1 1
 84     0.00000000000000     0.00000000000000     0.00000000000000
