CRYSTAL
PRIMVEC
<<<<<<< HEAD
 0.00000000000000 3.64989461012489 3.64989461012489
 3.64989461012489 0.00000000000000 3.64989461012489
 3.64989461012489 3.64989461012489 0.00000000000000
PRIMCOORD
 2 1
 84     0.00000000000000     0.00000000000000     0.00000000000000
 84     1.82494730506244     1.82494730506244     1.82494730506244
=======
 0.00000000000000 3.64989456941281 3.64989456941281
 3.64989456941281 0.00000000000000 3.64989456941281
 3.64989456941281 3.64989456941281 0.00000000000000
PRIMCOORD
 2 1
 84     0.00000000000000     0.00000000000000     0.00000000000000
 84     1.82494728470641     1.82494728470641     1.82494728470641
>>>>>>> 7cc294e (Central volumes for PBE Z=97-103, and PBEsol and LDA for Z=1-103)
