CRYSTAL
PRIMVEC
<<<<<<< HEAD
 0.00000000000000 2.47409841999853 2.47409841999853
 2.47409841999853 0.00000000000000 2.47409841999853
 2.47409841999853 2.47409841999853 0.00000000000000
=======
 0.00000000000000 2.47409840314155 2.47409840314155
 2.47409840314155 0.00000000000000 2.47409840314155
 2.47409840314155 2.47409840314155 0.00000000000000
>>>>>>> 7cc294e (Central volumes for PBE Z=97-103, and PBEsol and LDA for Z=1-103)
PRIMCOORD
 1 1
 84     0.00000000000000     0.00000000000000     0.00000000000000
