CRYSTAL
PRIMVEC
<<<<<<< HEAD
 3.27517195195551 0.00000000000000 0.00000000000000
 0.00000000000000 3.27517195195551 0.00000000000000
 0.00000000000000 0.00000000000000 3.27517195195551
=======
 3.27517192411285 0.00000000000000 0.00000000000000
 0.00000000000000 3.27517192411285 0.00000000000000
 0.00000000000000 0.00000000000000 3.27517192411285
>>>>>>> 7cc294e (Central volumes for PBE Z=97-103, and PBEsol and LDA for Z=1-103)
PRIMCOORD
 1 1
 84     0.00000000000000     0.00000000000000     0.00000000000000
