CRYSTAL
PRIMVEC
<<<<<<< HEAD
<<<<<<< HEAD
 -1.69351215308836 1.69351215308836 1.69351215308836
 1.69351215308836 -1.69351215308836 1.69351215308836
 1.69351215308836 1.69351215308836 -1.69351215308836
=======
 -1.69351215181836 1.69351215181836 1.69351215181836
 1.69351215181836 -1.69351215181836 1.69351215181836
 1.69351215181836 1.69351215181836 -1.69351215181836
>>>>>>> 7cc294e (Central volumes for PBE Z=97-103, and PBEsol and LDA for Z=1-103)
=======
 -1.69351215308836 1.69351215308836 1.69351215308836
 1.69351215308836 -1.69351215308836 1.69351215308836
 1.69351215308836 1.69351215308836 -1.69351215308836
>>>>>>> e84099c (Update new central volumes and add script for consistency checks)
PRIMCOORD
 1 1
 59     0.00000000000000     0.00000000000000     0.00000000000000
