CRYSTAL
PRIMVEC
<<<<<<< HEAD
 0.00000000000000 2.90890268539799 2.90890268539799
 2.90890268539799 0.00000000000000 2.90890268539799
 2.90890268539799 2.90890268539799 0.00000000000000
PRIMCOORD
 2 1
 59     0.00000000000000     0.00000000000000     0.00000000000000
 59     1.45445134269899     1.45445134269899     1.45445134269899
=======
 0.00000000000000 2.90890267685652 2.90890267685652
 2.90890267685652 0.00000000000000 2.90890267685652
 2.90890267685652 2.90890267685652 0.00000000000000
PRIMCOORD
 2 1
 59     0.00000000000000     0.00000000000000     0.00000000000000
 59     1.45445133842826     1.45445133842826     1.45445133842826
>>>>>>> 7cc294e (Central volumes for PBE Z=97-103, and PBEsol and LDA for Z=1-103)
