CRYSTAL
PRIMVEC
<<<<<<< HEAD
 2.63999367146052 0.00000000000000 0.00000000000000
 0.00000000000000 2.63999367146052 0.00000000000000
 0.00000000000000 0.00000000000000 2.63999367146052
=======
 2.63999366746533 0.00000000000000 0.00000000000000
 0.00000000000000 2.63999366746533 0.00000000000000
 0.00000000000000 0.00000000000000 2.63999366746533
>>>>>>> 7cc294e (Central volumes for PBE Z=97-103, and PBEsol and LDA for Z=1-103)
PRIMCOORD
 1 1
 59     0.00000000000000     0.00000000000000     0.00000000000000
