CRYSTAL
PRIMVEC
<<<<<<< HEAD
<<<<<<< HEAD
 0.00000000000000 2.82351958120882 2.82351958120882
 2.82351958120882 0.00000000000000 2.82351958120882
 2.82351958120882 2.82351958120882 0.00000000000000
PRIMCOORD
 2 1
 78     0.00000000000000     0.00000000000000     0.00000000000000
 78     1.41175979060441     1.41175979060441     1.41175979060441
=======
 0.00000000000000 2.82351957140067 2.82351957140067
 2.82351957140067 0.00000000000000 2.82351957140067
 2.82351957140067 2.82351957140067 0.00000000000000
PRIMCOORD
 2 1
 78     0.00000000000000     0.00000000000000     0.00000000000000
 78     1.41175978570034     1.41175978570034     1.41175978570034
>>>>>>> 7cc294e (Central volumes for PBE Z=97-103, and PBEsol and LDA for Z=1-103)
=======
 0.00000000000000 2.82351958120882 2.82351958120882
 2.82351958120882 0.00000000000000 2.82351958120882
 2.82351958120882 2.82351958120882 0.00000000000000
PRIMCOORD
 2 1
 78     0.00000000000000     0.00000000000000     0.00000000000000
 78     1.41175979060441     1.41175979060441     1.41175979060441
>>>>>>> e84099c (Update new central volumes and add script for consistency checks)
