CRYSTAL
PRIMVEC
<<<<<<< HEAD
 2.56993095158811 0.00000000000000 0.00000000000000
 0.00000000000000 2.56993095158811 0.00000000000000
 0.00000000000000 0.00000000000000 2.56993095158811
=======
 2.56993094917016 0.00000000000000 0.00000000000000
 0.00000000000000 2.56993094917016 0.00000000000000
 0.00000000000000 0.00000000000000 2.56993094917016
>>>>>>> 7cc294e (Central volumes for PBE Z=97-103, and PBEsol and LDA for Z=1-103)
PRIMCOORD
 1 1
 78     0.00000000000000     0.00000000000000     0.00000000000000
