CRYSTAL
PRIMVEC
<<<<<<< HEAD
<<<<<<< HEAD
 -1.56886017310164 1.56886017310164 1.56886017310164
 1.56886017310164 -1.56886017310164 1.56886017310164
 1.56886017310164 1.56886017310164 -1.56886017310164
=======
 -1.56886016531375 1.56886016531375 1.56886016531375
 1.56886016531375 -1.56886016531375 1.56886016531375
 1.56886016531375 1.56886016531375 -1.56886016531375
>>>>>>> 7cc294e (Central volumes for PBE Z=97-103, and PBEsol and LDA for Z=1-103)
=======
 -1.56886017310164 1.56886017310164 1.56886017310164
 1.56886017310164 -1.56886017310164 1.56886017310164
 1.56886017310164 1.56886017310164 -1.56886017310164
>>>>>>> e84099c (Update new central volumes and add script for consistency checks)
PRIMCOORD
 1 1
 94     0.00000000000000     0.00000000000000     0.00000000000000
