CRYSTAL
PRIMVEC
<<<<<<< HEAD
<<<<<<< HEAD
 0.00000000000000 2.67683481928058 2.67683481928058
 2.67683481928058 0.00000000000000 2.67683481928058
 2.67683481928058 2.67683481928058 0.00000000000000
PRIMCOORD
 2 1
 94     0.00000000000000     0.00000000000000     0.00000000000000
 94     1.33841740964029     1.33841740964029     1.33841740964029
=======
 0.00000000000000 2.67683471079016 2.67683471079016
 2.67683471079016 0.00000000000000 2.67683471079016
 2.67683471079016 2.67683471079016 0.00000000000000
PRIMCOORD
 2 1
 94     0.00000000000000     0.00000000000000     0.00000000000000
 94     1.33841735539508     1.33841735539508     1.33841735539508
>>>>>>> 7cc294e (Central volumes for PBE Z=97-103, and PBEsol and LDA for Z=1-103)
=======
 0.00000000000000 2.67683481928058 2.67683481928058
 2.67683481928058 0.00000000000000 2.67683481928058
 2.67683481928058 2.67683481928058 0.00000000000000
PRIMCOORD
 2 1
 94     0.00000000000000     0.00000000000000     0.00000000000000
 94     1.33841740964029     1.33841740964029     1.33841740964029
>>>>>>> e84099c (Update new central volumes and add script for consistency checks)
