CRYSTAL
PRIMVEC
<<<<<<< HEAD
<<<<<<< HEAD
 0.00000000000000 5.16401066050366 5.16401066050366
 5.16401066050366 0.00000000000000 5.16401066050366
 5.16401066050366 5.16401066050366 0.00000000000000
PRIMCOORD
 2 1
 88     0.00000000000000     0.00000000000000     0.00000000000000
 88     2.58200533025183     2.58200533025183     2.58200533025183
=======
 0.00000000000000 5.16401043260305 5.16401043260305
 5.16401043260305 0.00000000000000 5.16401043260305
 5.16401043260305 5.16401043260305 0.00000000000000
PRIMCOORD
 2 1
 88     0.00000000000000     0.00000000000000     0.00000000000000
 88     2.58200521630152     2.58200521630152     2.58200521630152
>>>>>>> 7cc294e (Central volumes for PBE Z=97-103, and PBEsol and LDA for Z=1-103)
=======
 0.00000000000000 5.16401066050366 5.16401066050366
 5.16401066050366 0.00000000000000 5.16401066050366
 5.16401066050366 5.16401066050366 0.00000000000000
PRIMCOORD
 2 1
 88     0.00000000000000     0.00000000000000     0.00000000000000
 88     2.58200533025183     2.58200533025183     2.58200533025183
>>>>>>> e84099c (Update new central volumes and add script for consistency checks)
