CRYSTAL
PRIMVEC
<<<<<<< HEAD
<<<<<<< HEAD
 3.98316838722705 0.00000000000000 0.00000000000000
 0.00000000000000 3.98316838722705 0.00000000000000
 0.00000000000000 0.00000000000000 3.98316838722705
=======
 3.98316838591742 0.00000000000000 0.00000000000000
 0.00000000000000 3.98316838591742 0.00000000000000
 0.00000000000000 0.00000000000000 3.98316838591742
>>>>>>> 7cc294e (Central volumes for PBE Z=97-103, and PBEsol and LDA for Z=1-103)
=======
 3.98316838722705 0.00000000000000 0.00000000000000
 0.00000000000000 3.98316838722705 0.00000000000000
 0.00000000000000 0.00000000000000 3.98316838722705
>>>>>>> e84099c (Update new central volumes and add script for consistency checks)
PRIMCOORD
 1 1
 88     0.00000000000000     0.00000000000000     0.00000000000000
