CRYSTAL
PRIMVEC
<<<<<<< HEAD
<<<<<<< HEAD
 -2.68724086565552 2.68724086565552 2.68724086565552
 2.68724086565552 -2.68724086565552 2.68724086565552
 2.68724086565552 2.68724086565552 -2.68724086565552
=======
 -2.68724086466373 2.68724086466373 2.68724086466373
 2.68724086466373 -2.68724086466373 2.68724086466373
 2.68724086466373 2.68724086466373 -2.68724086466373
>>>>>>> 7cc294e (Central volumes for PBE Z=97-103, and PBEsol and LDA for Z=1-103)
=======
 -2.68724086565552 2.68724086565552 2.68724086565552
 2.68724086565552 -2.68724086565552 2.68724086565552
 2.68724086565552 2.68724086565552 -2.68724086565552
>>>>>>> e84099c (Update new central volumes and add script for consistency checks)
PRIMCOORD
 1 1
 37     0.00000000000000     0.00000000000000     0.00000000000000
