CRYSTAL
PRIMVEC
<<<<<<< HEAD
 0.00000000000000 4.92588062295973 4.92588062295973
 4.92588062295973 0.00000000000000 4.92588062295973
 4.92588062295973 4.92588062295973 0.00000000000000
PRIMCOORD
 2 1
 37     0.00000000000000     0.00000000000000     0.00000000000000
 37     2.46294031147987     2.46294031147987     2.46294031147987
=======
 0.00000000000000 4.92588062107573 4.92588062107573
 4.92588062107573 0.00000000000000 4.92588062107573
 4.92588062107573 4.92588062107573 0.00000000000000
PRIMCOORD
 2 1
 37     0.00000000000000     0.00000000000000     0.00000000000000
 37     2.46294031053787     2.46294031053787     2.46294031053787
>>>>>>> 7cc294e (Central volumes for PBE Z=97-103, and PBEsol and LDA for Z=1-103)
