CRYSTAL
PRIMVEC
<<<<<<< HEAD
 4.38613704810954 0.00000000000000 0.00000000000000
 0.00000000000000 4.38613704810954 0.00000000000000
 0.00000000000000 0.00000000000000 4.38613704810954
=======
 4.38613704763432 0.00000000000000 0.00000000000000
 0.00000000000000 4.38613704763432 0.00000000000000
 0.00000000000000 0.00000000000000 4.38613704763432
>>>>>>> 7cc294e (Central volumes for PBE Z=97-103, and PBEsol and LDA for Z=1-103)
PRIMCOORD
 1 1
 37     0.00000000000000     0.00000000000000     0.00000000000000
