CRYSTAL
PRIMVEC
<<<<<<< HEAD
<<<<<<< HEAD
 4.38613704810954 0.00000000000000 0.00000000000000
 0.00000000000000 4.38613704810954 0.00000000000000
 0.00000000000000 0.00000000000000 4.38613704810954
=======
 4.38613704763432 0.00000000000000 0.00000000000000
 0.00000000000000 4.38613704763432 0.00000000000000
 0.00000000000000 0.00000000000000 4.38613704763432
>>>>>>> 7cc294e (Central volumes for PBE Z=97-103, and PBEsol and LDA for Z=1-103)
=======
 4.38613704810954 0.00000000000000 0.00000000000000
 0.00000000000000 4.38613704810954 0.00000000000000
 0.00000000000000 0.00000000000000 4.38613704810954
>>>>>>> e84099c (Update new central volumes and add script for consistency checks)
PRIMCOORD
 1 1
 37     0.00000000000000     0.00000000000000     0.00000000000000
