CRYSTAL
PRIMVEC
<<<<<<< HEAD
 -1.53552785811191 1.53552785811191 1.53552785811191
 1.53552785811191 -1.53552785811191 1.53552785811191
 1.53552785811191 1.53552785811191 -1.53552785811191
=======
 -1.53552781848219 1.53552781848219 1.53552781848219
 1.53552781848219 -1.53552781848219 1.53552781848219
 1.53552781848219 1.53552781848219 -1.53552781848219
>>>>>>> 7cc294e (Central volumes for PBE Z=97-103, and PBEsol and LDA for Z=1-103)
PRIMCOORD
 1 1
 75     0.00000000000000     0.00000000000000     0.00000000000000
