CRYSTAL
PRIMVEC
<<<<<<< HEAD
<<<<<<< HEAD
 0.00000000000000 2.78053658272822 2.78053658272822
 2.78053658272822 0.00000000000000 2.78053658272822
 2.78053658272822 2.78053658272822 0.00000000000000
PRIMCOORD
 2 1
 75     0.00000000000000     0.00000000000000     0.00000000000000
 75     1.39026829136411     1.39026829136411     1.39026829136411
=======
 0.00000000000000 2.78053657904015 2.78053657904015
 2.78053657904015 0.00000000000000 2.78053657904015
 2.78053657904015 2.78053657904015 0.00000000000000
PRIMCOORD
 2 1
 75     0.00000000000000     0.00000000000000     0.00000000000000
 75     1.39026828952008     1.39026828952008     1.39026828952008
>>>>>>> 7cc294e (Central volumes for PBE Z=97-103, and PBEsol and LDA for Z=1-103)
=======
 0.00000000000000 2.78053658272822 2.78053658272822
 2.78053658272822 0.00000000000000 2.78053658272822
 2.78053658272822 2.78053658272822 0.00000000000000
PRIMCOORD
 2 1
 75     0.00000000000000     0.00000000000000     0.00000000000000
 75     1.39026829136411     1.39026829136411     1.39026829136411
>>>>>>> e84099c (Update new central volumes and add script for consistency checks)
