CRYSTAL
PRIMVEC
<<<<<<< HEAD
 2.53825809251017 0.00000000000000 0.00000000000000
 0.00000000000000 2.53825809251017 0.00000000000000
 0.00000000000000 0.00000000000000 2.53825809251017
=======
 2.53825808919359 0.00000000000000 0.00000000000000
 0.00000000000000 2.53825808919359 0.00000000000000
 0.00000000000000 0.00000000000000 2.53825808919359
>>>>>>> 7cc294e (Central volumes for PBE Z=97-103, and PBEsol and LDA for Z=1-103)
PRIMCOORD
 1 1
 75     0.00000000000000     0.00000000000000     0.00000000000000
