CRYSTAL
PRIMVEC
<<<<<<< HEAD
<<<<<<< HEAD
 -1.50365847770944 1.50365847770944 1.50365847770944
 1.50365847770944 -1.50365847770944 1.50365847770944
 1.50365847770944 1.50365847770944 -1.50365847770944
=======
 -1.50365847502271 1.50365847502271 1.50365847502271
 1.50365847502271 -1.50365847502271 1.50365847502271
 1.50365847502271 1.50365847502271 -1.50365847502271
>>>>>>> 7cc294e (Central volumes for PBE Z=97-103, and PBEsol and LDA for Z=1-103)
=======
 -1.50365847770944 1.50365847770944 1.50365847770944
 1.50365847770944 -1.50365847770944 1.50365847770944
 1.50365847770944 1.50365847770944 -1.50365847770944
>>>>>>> e84099c (Update new central volumes and add script for consistency checks)
PRIMCOORD
 1 1
 45     0.00000000000000     0.00000000000000     0.00000000000000
