CRYSTAL
PRIMVEC
<<<<<<< HEAD
<<<<<<< HEAD
 0.00000000000000 2.69534009926166 2.69534009926166
 2.69534009926166 0.00000000000000 2.69534009926166
 2.69534009926166 2.69534009926166 0.00000000000000
PRIMCOORD
 2 1
 45     0.00000000000000     0.00000000000000     0.00000000000000
 45     1.34767004963083     1.34767004963083     1.34767004963083
=======
 0.00000000000000 2.69534009436522 2.69534009436522
 2.69534009436522 0.00000000000000 2.69534009436522
 2.69534009436522 2.69534009436522 0.00000000000000
PRIMCOORD
 2 1
 45     0.00000000000000     0.00000000000000     0.00000000000000
 45     1.34767004718261     1.34767004718261     1.34767004718261
>>>>>>> 7cc294e (Central volumes for PBE Z=97-103, and PBEsol and LDA for Z=1-103)
=======
 0.00000000000000 2.69534009926166 2.69534009926166
 2.69534009926166 0.00000000000000 2.69534009926166
 2.69534009926166 2.69534009926166 0.00000000000000
PRIMCOORD
 2 1
 45     0.00000000000000     0.00000000000000     0.00000000000000
 45     1.34767004963083     1.34767004963083     1.34767004963083
>>>>>>> e84099c (Update new central volumes and add script for consistency checks)
