CRYSTAL
PRIMVEC
<<<<<<< HEAD
 2.48013601303459 0.00000000000000 0.00000000000000
 0.00000000000000 2.48013601303459 0.00000000000000
 0.00000000000000 0.00000000000000 2.48013601303459
=======
 2.48013600694583 0.00000000000000 0.00000000000000
 0.00000000000000 2.48013600694583 0.00000000000000
 0.00000000000000 0.00000000000000 2.48013600694583
>>>>>>> 7cc294e (Central volumes for PBE Z=97-103, and PBEsol and LDA for Z=1-103)
PRIMCOORD
 1 1
 45     0.00000000000000     0.00000000000000     0.00000000000000
