CRYSTAL
PRIMVEC
<<<<<<< HEAD
 -2.40990044502257 2.40990044502257 2.40990044502257
 2.40990044502257 -2.40990044502257 2.40990044502257
 2.40990044502257 2.40990044502257 -2.40990044502257
=======
 -2.40990042886751 2.40990042886751 2.40990042886751
 2.40990042886751 -2.40990042886751 2.40990042886751
 2.40990042886751 2.40990042886751 -2.40990042886751
>>>>>>> 7cc294e (Central volumes for PBE Z=97-103, and PBEsol and LDA for Z=1-103)
PRIMCOORD
 1 1
 86     0.00000000000000     0.00000000000000     0.00000000000000
