CRYSTAL
PRIMVEC
<<<<<<< HEAD
<<<<<<< HEAD
 0.00000000000000 4.79724393341441 4.79724393341441
 4.79724393341441 0.00000000000000 4.79724393341441
 4.79724393341441 4.79724393341441 0.00000000000000
PRIMCOORD
 2 1
 86     0.00000000000000     0.00000000000000     0.00000000000000
 86     2.39862196670720     2.39862196670720     2.39862196670720
=======
 0.00000000000000 4.79724388859370 4.79724388859370
 4.79724388859370 0.00000000000000 4.79724388859370
 4.79724388859370 4.79724388859370 0.00000000000000
PRIMCOORD
 2 1
 86     0.00000000000000     0.00000000000000     0.00000000000000
 86     2.39862194429685     2.39862194429685     2.39862194429685
>>>>>>> 7cc294e (Central volumes for PBE Z=97-103, and PBEsol and LDA for Z=1-103)
=======
 0.00000000000000 4.79724393341441 4.79724393341441
 4.79724393341441 0.00000000000000 4.79724393341441
 4.79724393341441 4.79724393341441 0.00000000000000
PRIMCOORD
 2 1
 86     0.00000000000000     0.00000000000000     0.00000000000000
 86     2.39862196670720     2.39862196670720     2.39862196670720
>>>>>>> e84099c (Update new central volumes and add script for consistency checks)
