CRYSTAL
PRIMVEC
<<<<<<< HEAD
 0.00000000000000 3.01461870597420 3.01461870597420
 3.01461870597420 0.00000000000000 3.01461870597420
 3.01461870597420 3.01461870597420 0.00000000000000
=======
 0.00000000000000 3.01461868601237 3.01461868601237
 3.01461868601237 0.00000000000000 3.01461868601237
 3.01461868601237 3.01461868601237 0.00000000000000
>>>>>>> 7cc294e (Central volumes for PBE Z=97-103, and PBEsol and LDA for Z=1-103)
PRIMCOORD
 1 1
 86     0.00000000000000     0.00000000000000     0.00000000000000
