CRYSTAL
PRIMVEC
<<<<<<< HEAD
 4.17044133032046 0.00000000000000 0.00000000000000
 0.00000000000000 4.17044133032046 0.00000000000000
 0.00000000000000 0.00000000000000 4.17044133032046
=======
 4.17044129956208 0.00000000000000 0.00000000000000
 0.00000000000000 4.17044129956208 0.00000000000000
 0.00000000000000 0.00000000000000 4.17044129956208
>>>>>>> 7cc294e (Central volumes for PBE Z=97-103, and PBEsol and LDA for Z=1-103)
PRIMCOORD
 1 1
 86     0.00000000000000     0.00000000000000     0.00000000000000
