CRYSTAL
PRIMVEC
<<<<<<< HEAD
 -1.50013277535791 1.50013277535791 1.50013277535791
 1.50013277535791 -1.50013277535791 1.50013277535791
 1.50013277535791 1.50013277535791 -1.50013277535791
=======
 -1.50013277243553 1.50013277243553 1.50013277243553
 1.50013277243553 -1.50013277243553 1.50013277243553
 1.50013277243553 1.50013277243553 -1.50013277243553
>>>>>>> 7cc294e (Central volumes for PBE Z=97-103, and PBEsol and LDA for Z=1-103)
PRIMCOORD
 1 1
 44     0.00000000000000     0.00000000000000     0.00000000000000
