CRYSTAL
PRIMVEC
<<<<<<< HEAD
 0.00000000000000 2.67858020019130 2.67858020019130
 2.67858020019130 0.00000000000000 2.67858020019130
 2.67858020019130 2.67858020019130 0.00000000000000
PRIMCOORD
 2 1
 44     0.00000000000000     0.00000000000000     0.00000000000000
 44     1.33929010009565     1.33929010009565     1.33929010009565
=======
 0.00000000000000 2.67858019436745 2.67858019436745
 2.67858019436745 0.00000000000000 2.67858019436745
 2.67858019436745 2.67858019436745 0.00000000000000
PRIMCOORD
 2 1
 44     0.00000000000000     0.00000000000000     0.00000000000000
 44     1.33929009718372     1.33929009718372     1.33929009718372
>>>>>>> 7cc294e (Central volumes for PBE Z=97-103, and PBEsol and LDA for Z=1-103)
