CRYSTAL
PRIMVEC
<<<<<<< HEAD
<<<<<<< HEAD
 2.46417024741491 0.00000000000000 0.00000000000000
 0.00000000000000 2.46417024741491 0.00000000000000
 0.00000000000000 0.00000000000000 2.46417024741491
=======
 2.46417024200848 0.00000000000000 0.00000000000000
 0.00000000000000 2.46417024200848 0.00000000000000
 0.00000000000000 0.00000000000000 2.46417024200848
>>>>>>> 7cc294e (Central volumes for PBE Z=97-103, and PBEsol and LDA for Z=1-103)
=======
 2.46417024741491 0.00000000000000 0.00000000000000
 0.00000000000000 2.46417024741491 0.00000000000000
 0.00000000000000 0.00000000000000 2.46417024741491
>>>>>>> e84099c (Update new central volumes and add script for consistency checks)
PRIMCOORD
 1 1
 44     0.00000000000000     0.00000000000000     0.00000000000000
