CRYSTAL
PRIMVEC
<<<<<<< HEAD
 2.46417024741491 0.00000000000000 0.00000000000000
 0.00000000000000 2.46417024741491 0.00000000000000
 0.00000000000000 0.00000000000000 2.46417024741491
=======
 2.46417024200848 0.00000000000000 0.00000000000000
 0.00000000000000 2.46417024200848 0.00000000000000
 0.00000000000000 0.00000000000000 2.46417024200848
>>>>>>> 7cc294e (Central volumes for PBE Z=97-103, and PBEsol and LDA for Z=1-103)
PRIMCOORD
 1 1
 44     0.00000000000000     0.00000000000000     0.00000000000000
