CRYSTAL
PRIMVEC
<<<<<<< HEAD
 -1.54170287376165 1.54170287376165 1.54170287376165
 1.54170287376165 -1.54170287376165 1.54170287376165
 1.54170287376165 1.54170287376165 -1.54170287376165
=======
 -1.54170266885415 1.54170266885415 1.54170266885415
 1.54170266885415 -1.54170266885415 1.54170266885415
 1.54170266885415 1.54170266885415 -1.54170266885415
>>>>>>> 7cc294e (Central volumes for PBE Z=97-103, and PBEsol and LDA for Z=1-103)
PRIMCOORD
 1 1
 16     0.00000000000000     0.00000000000000     0.00000000000000
