CRYSTAL
PRIMVEC
<<<<<<< HEAD
<<<<<<< HEAD
 0.00000000000000 2.81744484319875 2.81744484319875
 2.81744484319875 0.00000000000000 2.81744484319875
 2.81744484319875 2.81744484319875 0.00000000000000
PRIMCOORD
 2 1
 16     0.00000000000000     0.00000000000000     0.00000000000000
 16     1.40872242159937     1.40872242159937     1.40872242159937
=======
 0.00000000000000 2.81744483319463 2.81744483319463
 2.81744483319463 0.00000000000000 2.81744483319463
 2.81744483319463 2.81744483319463 0.00000000000000
PRIMCOORD
 2 1
 16     0.00000000000000     0.00000000000000     0.00000000000000
 16     1.40872241659731     1.40872241659731     1.40872241659731
>>>>>>> 7cc294e (Central volumes for PBE Z=97-103, and PBEsol and LDA for Z=1-103)
=======
 0.00000000000000 2.81744484319875 2.81744484319875
 2.81744484319875 0.00000000000000 2.81744484319875
 2.81744484319875 2.81744484319875 0.00000000000000
PRIMCOORD
 2 1
 16     0.00000000000000     0.00000000000000     0.00000000000000
 16     1.40872242159937     1.40872242159937     1.40872242159937
>>>>>>> e84099c (Update new central volumes and add script for consistency checks)
