CRYSTAL
PRIMVEC
<<<<<<< HEAD
<<<<<<< HEAD
 2.52840329838458 0.00000000000000 0.00000000000000
 0.00000000000000 2.52840329838458 0.00000000000000
 0.00000000000000 0.00000000000000 2.52840329838458
=======
 2.52840326065295 0.00000000000000 0.00000000000000
 0.00000000000000 2.52840326065295 0.00000000000000
 0.00000000000000 0.00000000000000 2.52840326065295
>>>>>>> 7cc294e (Central volumes for PBE Z=97-103, and PBEsol and LDA for Z=1-103)
=======
 2.52840329838458 0.00000000000000 0.00000000000000
 0.00000000000000 2.52840329838458 0.00000000000000
 0.00000000000000 0.00000000000000 2.52840329838458
>>>>>>> e84099c (Update new central volumes and add script for consistency checks)
PRIMCOORD
 1 1
 16     0.00000000000000     0.00000000000000     0.00000000000000
