CRYSTAL
PRIMVEC
<<<<<<< HEAD
 -1.85406311981068 1.85406311981068 1.85406311981068
 1.85406311981068 -1.85406311981068 1.85406311981068
 1.85406311981068 1.85406311981068 -1.85406311981068
=======
 -1.85406310810294 1.85406310810294 1.85406310810294
 1.85406310810294 -1.85406310810294 1.85406310810294
 1.85406310810294 1.85406310810294 -1.85406310810294
>>>>>>> 7cc294e (Central volumes for PBE Z=97-103, and PBEsol and LDA for Z=1-103)
PRIMCOORD
 1 1
 51     0.00000000000000     0.00000000000000     0.00000000000000
