CRYSTAL
PRIMVEC
<<<<<<< HEAD
<<<<<<< HEAD
 0.00000000000000 3.40724887905437 3.40724887905437
 3.40724887905437 0.00000000000000 3.40724887905437
 3.40724887905437 3.40724887905437 0.00000000000000
PRIMCOORD
 2 1
 51     0.00000000000000     0.00000000000000     0.00000000000000
 51     1.70362443952718     1.70362443952718     1.70362443952718
=======
 0.00000000000000 3.40724880274413 3.40724880274413
 3.40724880274413 0.00000000000000 3.40724880274413
 3.40724880274413 3.40724880274413 0.00000000000000
PRIMCOORD
 2 1
 51     0.00000000000000     0.00000000000000     0.00000000000000
 51     1.70362440137206     1.70362440137206     1.70362440137206
>>>>>>> 7cc294e (Central volumes for PBE Z=97-103, and PBEsol and LDA for Z=1-103)
=======
 0.00000000000000 3.40724887905437 3.40724887905437
 3.40724887905437 0.00000000000000 3.40724887905437
 3.40724887905437 3.40724887905437 0.00000000000000
PRIMCOORD
 2 1
 51     0.00000000000000     0.00000000000000     0.00000000000000
 51     1.70362443952718     1.70362443952718     1.70362443952718
>>>>>>> e84099c (Update new central volumes and add script for consistency checks)
