CRYSTAL
PRIMVEC
<<<<<<< HEAD
 0.00000000000000 2.34330897795164 2.34330897795164
 2.34330897795164 0.00000000000000 2.34330897795164
 2.34330897795164 2.34330897795164 0.00000000000000
=======
 0.00000000000000 2.34330894033240 2.34330894033240
 2.34330894033240 0.00000000000000 2.34330894033240
 2.34330894033240 2.34330894033240 0.00000000000000
>>>>>>> 7cc294e (Central volumes for PBE Z=97-103, and PBEsol and LDA for Z=1-103)
PRIMCOORD
 1 1
 51     0.00000000000000     0.00000000000000     0.00000000000000
