CRYSTAL
PRIMVEC
<<<<<<< HEAD
<<<<<<< HEAD
 3.04073076230852 0.00000000000000 0.00000000000000
 0.00000000000000 3.04073076230852 0.00000000000000
 0.00000000000000 0.00000000000000 3.04073076230852
=======
 3.04072967408996 0.00000000000000 0.00000000000000
 0.00000000000000 3.04072967408996 0.00000000000000
 0.00000000000000 0.00000000000000 3.04072967408996
>>>>>>> 7cc294e (Central volumes for PBE Z=97-103, and PBEsol and LDA for Z=1-103)
=======
 3.04073076230852 0.00000000000000 0.00000000000000
 0.00000000000000 3.04073076230852 0.00000000000000
 0.00000000000000 0.00000000000000 3.04073076230852
>>>>>>> e84099c (Update new central volumes and add script for consistency checks)
PRIMCOORD
 1 1
 51     0.00000000000000     0.00000000000000     0.00000000000000
