CRYSTAL
PRIMVEC
<<<<<<< HEAD
<<<<<<< HEAD
 -1.78385563015099 1.78385563015099 1.78385563015099
 1.78385563015099 -1.78385563015099 1.78385563015099
 1.78385563015099 1.78385563015099 -1.78385563015099
=======
 -1.78385562941639 1.78385562941639 1.78385562941639
 1.78385562941639 -1.78385562941639 1.78385562941639
 1.78385562941639 1.78385562941639 -1.78385562941639
>>>>>>> 7cc294e (Central volumes for PBE Z=97-103, and PBEsol and LDA for Z=1-103)
=======
 -1.78385563015099 1.78385563015099 1.78385563015099
 1.78385563015099 -1.78385563015099 1.78385563015099
 1.78385563015099 1.78385563015099 -1.78385563015099
>>>>>>> e84099c (Update new central volumes and add script for consistency checks)
PRIMCOORD
 1 1
 21     0.00000000000000     0.00000000000000     0.00000000000000
