CRYSTAL
PRIMVEC
<<<<<<< HEAD
<<<<<<< HEAD
 0.00000000000000 2.99178178771998 2.99178178771998
 2.99178178771998 0.00000000000000 2.99178178771998
 2.99178178771998 2.99178178771998 0.00000000000000
PRIMCOORD
 2 1
 21     0.00000000000000     0.00000000000000     0.00000000000000
 21     1.49589089385999     1.49589089385999     1.49589089385999
=======
 0.00000000000000 2.99178176062352 2.99178176062352
 2.99178176062352 0.00000000000000 2.99178176062352
 2.99178176062352 2.99178176062352 0.00000000000000
PRIMCOORD
 2 1
 21     0.00000000000000     0.00000000000000     0.00000000000000
 21     1.49589088031176     1.49589088031176     1.49589088031176
>>>>>>> 7cc294e (Central volumes for PBE Z=97-103, and PBEsol and LDA for Z=1-103)
=======
 0.00000000000000 2.99178178771998 2.99178178771998
 2.99178178771998 0.00000000000000 2.99178178771998
 2.99178178771998 2.99178178771998 0.00000000000000
PRIMCOORD
 2 1
 21     0.00000000000000     0.00000000000000     0.00000000000000
 21     1.49589089385999     1.49589089385999     1.49589089385999
>>>>>>> e84099c (Update new central volumes and add script for consistency checks)
