CRYSTAL
PRIMVEC
<<<<<<< HEAD
 2.84909302906437 0.00000000000000 0.00000000000000
 0.00000000000000 2.84909302906437 0.00000000000000
 0.00000000000000 0.00000000000000 2.84909302906437
=======
 2.84909302475370 0.00000000000000 0.00000000000000
 0.00000000000000 2.84909302475370 0.00000000000000
 0.00000000000000 0.00000000000000 2.84909302475370
>>>>>>> 7cc294e (Central volumes for PBE Z=97-103, and PBEsol and LDA for Z=1-103)
PRIMCOORD
 1 1
 21     0.00000000000000     0.00000000000000     0.00000000000000
