CRYSTAL
PRIMVEC
<<<<<<< HEAD
 -1.67865579475591 1.67865579475591 1.67865579475591
 1.67865579475591 -1.67865579475591 1.67865579475591
 1.67865579475591 1.67865579475591 -1.67865579475591
=======
 -1.67865578285582 1.67865578285582 1.67865578285582
 1.67865578285582 -1.67865578285582 1.67865578285582
 1.67865578285582 1.67865578285582 -1.67865578285582
>>>>>>> 7cc294e (Central volumes for PBE Z=97-103, and PBEsol and LDA for Z=1-103)
PRIMCOORD
 1 1
 34     0.00000000000000     0.00000000000000     0.00000000000000
