CRYSTAL
PRIMVEC
<<<<<<< HEAD
 0.00000000000000 3.08471681876896 3.08471681876896
 3.08471681876896 0.00000000000000 3.08471681876896
 3.08471681876896 3.08471681876896 0.00000000000000
PRIMCOORD
 2 1
 34     0.00000000000000     0.00000000000000     0.00000000000000
 34     1.54235840938448     1.54235840938448     1.54235840938448
=======
 0.00000000000000 3.08471681549292 3.08471681549292
 3.08471681549292 0.00000000000000 3.08471681549292
 3.08471681549292 3.08471681549292 0.00000000000000
PRIMCOORD
 2 1
 34     0.00000000000000     0.00000000000000     0.00000000000000
 34     1.54235840774646     1.54235840774646     1.54235840774646
>>>>>>> 7cc294e (Central volumes for PBE Z=97-103, and PBEsol and LDA for Z=1-103)
