CRYSTAL
PRIMVEC
<<<<<<< HEAD
<<<<<<< HEAD
 0.00000000000000 2.11438082818269 2.11438082818269
 2.11438082818269 0.00000000000000 2.11438082818269
 2.11438082818269 2.11438082818269 0.00000000000000
=======
 0.00000000000000 2.11438082261986 2.11438082261986
 2.11438082261986 0.00000000000000 2.11438082261986
 2.11438082261986 2.11438082261986 0.00000000000000
>>>>>>> 7cc294e (Central volumes for PBE Z=97-103, and PBEsol and LDA for Z=1-103)
=======
 0.00000000000000 2.11438082818269 2.11438082818269
 2.11438082818269 0.00000000000000 2.11438082818269
 2.11438082818269 2.11438082818269 0.00000000000000
>>>>>>> e84099c (Update new central volumes and add script for consistency checks)
PRIMCOORD
 1 1
 34     0.00000000000000     0.00000000000000     0.00000000000000
