CRYSTAL
PRIMVEC
<<<<<<< HEAD
<<<<<<< HEAD
 2.76871792902015 0.00000000000000 0.00000000000000
 0.00000000000000 2.76871792902015 0.00000000000000
 0.00000000000000 0.00000000000000 2.76871792902015
=======
 2.76871784502629 0.00000000000000 0.00000000000000
 0.00000000000000 2.76871784502629 0.00000000000000
 0.00000000000000 0.00000000000000 2.76871784502629
>>>>>>> 7cc294e (Central volumes for PBE Z=97-103, and PBEsol and LDA for Z=1-103)
=======
 2.76871792902015 0.00000000000000 0.00000000000000
 0.00000000000000 2.76871792902015 0.00000000000000
 0.00000000000000 0.00000000000000 2.76871792902015
>>>>>>> e84099c (Update new central volumes and add script for consistency checks)
PRIMCOORD
 1 1
 34     0.00000000000000     0.00000000000000     0.00000000000000
