CRYSTAL
PRIMVEC
<<<<<<< HEAD
<<<<<<< HEAD
 -1.52249214690254 1.52249214690254 1.52249214690254
 1.52249214690254 -1.52249214690254 1.52249214690254
 1.52249214690254 1.52249214690254 -1.52249214690254
=======
 -1.52249214622826 1.52249214622826 1.52249214622826
 1.52249214622826 -1.52249214622826 1.52249214622826
 1.52249214622826 1.52249214622826 -1.52249214622826
>>>>>>> 7cc294e (Central volumes for PBE Z=97-103, and PBEsol and LDA for Z=1-103)
=======
 -1.52249214690254 1.52249214690254 1.52249214690254
 1.52249214690254 -1.52249214690254 1.52249214690254
 1.52249214690254 1.52249214690254 -1.52249214690254
>>>>>>> e84099c (Update new central volumes and add script for consistency checks)
PRIMCOORD
 1 1
 14     0.00000000000000     0.00000000000000     0.00000000000000
