CRYSTAL
PRIMVEC
<<<<<<< HEAD
<<<<<<< HEAD
 0.00000000000000 2.70057073426207 2.70057073426207
 2.70057073426207 0.00000000000000 2.70057073426207
 2.70057073426207 2.70057073426207 0.00000000000000
PRIMCOORD
 2 1
 14     0.00000000000000     0.00000000000000     0.00000000000000
 14     1.35028536713104     1.35028536713104     1.35028536713104
=======
 0.00000000000000 2.70057072640030 2.70057072640030
 2.70057072640030 0.00000000000000 2.70057072640030
 2.70057072640030 2.70057072640030 0.00000000000000
PRIMCOORD
 2 1
 14     0.00000000000000     0.00000000000000     0.00000000000000
 14     1.35028536320015     1.35028536320015     1.35028536320015
>>>>>>> 7cc294e (Central volumes for PBE Z=97-103, and PBEsol and LDA for Z=1-103)
=======
 0.00000000000000 2.70057073426207 2.70057073426207
 2.70057073426207 0.00000000000000 2.70057073426207
 2.70057073426207 2.70057073426207 0.00000000000000
PRIMCOORD
 2 1
 14     0.00000000000000     0.00000000000000     0.00000000000000
 14     1.35028536713104     1.35028536713104     1.35028536713104
>>>>>>> e84099c (Update new central volumes and add script for consistency checks)
