CRYSTAL
PRIMVEC
<<<<<<< HEAD
 0.00000000000000 1.90929932916114 1.90929932916114
 1.90929932916114 0.00000000000000 1.90929932916114
 1.90929932916114 1.90929932916114 0.00000000000000
=======
 0.00000000000000 1.90929932629696 1.90929932629696
 1.90929932629696 0.00000000000000 1.90929932629696
 1.90929932629696 1.90929932629696 0.00000000000000
>>>>>>> 7cc294e (Central volumes for PBE Z=97-103, and PBEsol and LDA for Z=1-103)
PRIMCOORD
 1 1
 14     0.00000000000000     0.00000000000000     0.00000000000000
