CRYSTAL
PRIMVEC
<<<<<<< HEAD
 2.50143504608336 0.00000000000000 0.00000000000000
 0.00000000000000 2.50143504608336 0.00000000000000
 0.00000000000000 0.00000000000000 2.50143504608336
=======
 2.50143502554545 0.00000000000000 0.00000000000000
 0.00000000000000 2.50143502554545 0.00000000000000
 0.00000000000000 0.00000000000000 2.50143502554545
>>>>>>> 7cc294e (Central volumes for PBE Z=97-103, and PBEsol and LDA for Z=1-103)
PRIMCOORD
 1 1
 14     0.00000000000000     0.00000000000000     0.00000000000000
