CRYSTAL
PRIMVEC
<<<<<<< HEAD
<<<<<<< HEAD
 -1.59695787571922 1.59695787571922 1.59695787571922
 1.59695787571922 -1.59695787571922 1.59695787571922
 1.59695787571922 1.59695787571922 -1.59695787571922
=======
 -1.59695786881941 1.59695786881941 1.59695786881941
 1.59695786881941 -1.59695786881941 1.59695786881941
 1.59695786881941 1.59695786881941 -1.59695786881941
>>>>>>> 7cc294e (Central volumes for PBE Z=97-103, and PBEsol and LDA for Z=1-103)
=======
 -1.59695787571922 1.59695787571922 1.59695787571922
 1.59695787571922 -1.59695787571922 1.59695787571922
 1.59695787571922 1.59695787571922 -1.59695787571922
>>>>>>> e84099c (Update new central volumes and add script for consistency checks)
PRIMCOORD
 1 1
 62     0.00000000000000     0.00000000000000     0.00000000000000
