CRYSTAL
PRIMVEC
<<<<<<< HEAD
<<<<<<< HEAD
 0.00000000000000 2.68633328878591 2.68633328878591
 2.68633328878591 0.00000000000000 2.68633328878591
 2.68633328878591 2.68633328878591 0.00000000000000
PRIMCOORD
 2 1
 62     0.00000000000000     0.00000000000000     0.00000000000000
 62     1.34316664439296     1.34316664439296     1.34316664439296
=======
 0.00000000000000 2.68633326507454 2.68633326507454
 2.68633326507454 0.00000000000000 2.68633326507454
 2.68633326507454 2.68633326507454 0.00000000000000
PRIMCOORD
 2 1
 62     0.00000000000000     0.00000000000000     0.00000000000000
 62     1.34316663253727     1.34316663253727     1.34316663253727
>>>>>>> 7cc294e (Central volumes for PBE Z=97-103, and PBEsol and LDA for Z=1-103)
=======
 0.00000000000000 2.68633328878591 2.68633328878591
 2.68633328878591 0.00000000000000 2.68633328878591
 2.68633328878591 2.68633328878591 0.00000000000000
PRIMCOORD
 2 1
 62     0.00000000000000     0.00000000000000     0.00000000000000
 62     1.34316664439296     1.34316664439296     1.34316664439296
>>>>>>> e84099c (Update new central volumes and add script for consistency checks)
