CRYSTAL
PRIMVEC
<<<<<<< HEAD
 0.00000000000000 2.08254645548791 2.08254645548791
 2.08254645548791 0.00000000000000 2.08254645548791
 2.08254645548791 2.08254645548791 0.00000000000000
=======
 0.00000000000000 2.08254644682886 2.08254644682886
 2.08254644682886 0.00000000000000 2.08254644682886
 2.08254644682886 2.08254644682886 0.00000000000000
>>>>>>> 7cc294e (Central volumes for PBE Z=97-103, and PBEsol and LDA for Z=1-103)
PRIMCOORD
 1 1
 62     0.00000000000000     0.00000000000000     0.00000000000000
