CRYSTAL
PRIMVEC
<<<<<<< HEAD
<<<<<<< HEAD
 2.48945135264608 0.00000000000000 0.00000000000000
 0.00000000000000 2.48945135264608 0.00000000000000
 0.00000000000000 0.00000000000000 2.48945135264608
=======
 2.48945134699096 0.00000000000000 0.00000000000000
 0.00000000000000 2.48945134699096 0.00000000000000
 0.00000000000000 0.00000000000000 2.48945134699096
>>>>>>> 7cc294e (Central volumes for PBE Z=97-103, and PBEsol and LDA for Z=1-103)
=======
 2.48945135264608 0.00000000000000 0.00000000000000
 0.00000000000000 2.48945135264608 0.00000000000000
 0.00000000000000 0.00000000000000 2.48945135264608
>>>>>>> e84099c (Update new central volumes and add script for consistency checks)
PRIMCOORD
 1 1
 62     0.00000000000000     0.00000000000000     0.00000000000000
