CRYSTAL
PRIMVEC
<<<<<<< HEAD
<<<<<<< HEAD
 -1.85361562873588 1.85361562873588 1.85361562873588
 1.85361562873588 -1.85361562873588 1.85361562873588
 1.85361562873588 1.85361562873588 -1.85361562873588
=======
 -1.85361560708438 1.85361560708438 1.85361560708438
 1.85361560708438 -1.85361560708438 1.85361560708438
 1.85361560708438 1.85361560708438 -1.85361560708438
>>>>>>> 7cc294e (Central volumes for PBE Z=97-103, and PBEsol and LDA for Z=1-103)
=======
 -1.85361562873588 1.85361562873588 1.85361562873588
 1.85361562873588 -1.85361562873588 1.85361562873588
 1.85361562873588 1.85361562873588 -1.85361562873588
>>>>>>> e84099c (Update new central volumes and add script for consistency checks)
PRIMCOORD
 1 1
 50     0.00000000000000     0.00000000000000     0.00000000000000
