CRYSTAL
PRIMVEC
<<<<<<< HEAD
 0.00000000000000 3.23709133220265 3.23709133220265
 3.23709133220265 0.00000000000000 3.23709133220265
 3.23709133220265 3.23709133220265 0.00000000000000
PRIMCOORD
 2 1
 50     0.00000000000000     0.00000000000000     0.00000000000000
 50     1.61854566610132     1.61854566610132     1.61854566610132
=======
 0.00000000000000 3.23709131450477 3.23709131450477
 3.23709131450477 0.00000000000000 3.23709131450477
 3.23709131450477 3.23709131450477 0.00000000000000
PRIMCOORD
 2 1
 50     0.00000000000000     0.00000000000000     0.00000000000000
 50     1.61854565725238     1.61854565725238     1.61854565725238
>>>>>>> 7cc294e (Central volumes for PBE Z=97-103, and PBEsol and LDA for Z=1-103)
