CRYSTAL
PRIMVEC
<<<<<<< HEAD
 3.00512563755652 0.00000000000000 0.00000000000000
 0.00000000000000 3.00512563755652 0.00000000000000
 0.00000000000000 0.00000000000000 3.00512563755652
=======
 3.00512554931344 0.00000000000000 0.00000000000000
 0.00000000000000 3.00512554931344 0.00000000000000
 0.00000000000000 0.00000000000000 3.00512554931344
>>>>>>> 7cc294e (Central volumes for PBE Z=97-103, and PBEsol and LDA for Z=1-103)
PRIMCOORD
 1 1
 50     0.00000000000000     0.00000000000000     0.00000000000000
