CRYSTAL
PRIMVEC
<<<<<<< HEAD
 -2.28509247040918 2.28509247040918 2.28509247040918
 2.28509247040918 -2.28509247040918 2.28509247040918
 2.28509247040918 2.28509247040918 -2.28509247040918
=======
 -2.28509246705426 2.28509246705426 2.28509246705426
 2.28509246705426 -2.28509246705426 2.28509246705426
 2.28509246705426 2.28509246705426 -2.28509246705426
>>>>>>> 7cc294e (Central volumes for PBE Z=97-103, and PBEsol and LDA for Z=1-103)
PRIMCOORD
 1 1
 38     0.00000000000000     0.00000000000000     0.00000000000000
