CRYSTAL
PRIMVEC
<<<<<<< HEAD
<<<<<<< HEAD
 -2.28509247040918 2.28509247040918 2.28509247040918
 2.28509247040918 -2.28509247040918 2.28509247040918
 2.28509247040918 2.28509247040918 -2.28509247040918
=======
 -2.28509246705426 2.28509246705426 2.28509246705426
 2.28509246705426 -2.28509246705426 2.28509246705426
 2.28509246705426 2.28509246705426 -2.28509246705426
>>>>>>> 7cc294e (Central volumes for PBE Z=97-103, and PBEsol and LDA for Z=1-103)
=======
 -2.28509247040918 2.28509247040918 2.28509247040918
 2.28509247040918 -2.28509247040918 2.28509247040918
 2.28509247040918 2.28509247040918 -2.28509247040918
>>>>>>> e84099c (Update new central volumes and add script for consistency checks)
PRIMCOORD
 1 1
 38     0.00000000000000     0.00000000000000     0.00000000000000
