CRYSTAL
PRIMVEC
<<<<<<< HEAD
<<<<<<< HEAD
 0.00000000000000 4.61527085526011 4.61527085526011
 4.61527085526011 0.00000000000000 4.61527085526011
 4.61527085526011 4.61527085526011 0.00000000000000
PRIMCOORD
 2 1
 38     0.00000000000000     0.00000000000000     0.00000000000000
 38     2.30763542763005     2.30763542763005     2.30763542763005
=======
 0.00000000000000 4.61527085220875 4.61527085220875
 4.61527085220875 0.00000000000000 4.61527085220875
 4.61527085220875 4.61527085220875 0.00000000000000
PRIMCOORD
 2 1
 38     0.00000000000000     0.00000000000000     0.00000000000000
 38     2.30763542610438     2.30763542610438     2.30763542610438
>>>>>>> 7cc294e (Central volumes for PBE Z=97-103, and PBEsol and LDA for Z=1-103)
=======
 0.00000000000000 4.61527085526011 4.61527085526011
 4.61527085526011 0.00000000000000 4.61527085526011
 4.61527085526011 4.61527085526011 0.00000000000000
PRIMCOORD
 2 1
 38     0.00000000000000     0.00000000000000     0.00000000000000
 38     2.30763542763005     2.30763542763005     2.30763542763005
>>>>>>> e84099c (Update new central volumes and add script for consistency checks)
