CRYSTAL
PRIMVEC
<<<<<<< HEAD
 0.00000000000000 2.89705479729639 2.89705479729639
 2.89705479729639 0.00000000000000 2.89705479729639
 2.89705479729639 2.89705479729639 0.00000000000000
=======
 0.00000000000000 2.89705479472339 2.89705479472339
 2.89705479472339 0.00000000000000 2.89705479472339
 2.89705479472339 2.89705479472339 0.00000000000000
>>>>>>> 7cc294e (Central volumes for PBE Z=97-103, and PBEsol and LDA for Z=1-103)
PRIMCOORD
 1 1
 38     0.00000000000000     0.00000000000000     0.00000000000000
