CRYSTAL
PRIMVEC
<<<<<<< HEAD
 3.64503307363014 0.00000000000000 0.00000000000000
 0.00000000000000 3.64503307363014 0.00000000000000
 0.00000000000000 0.00000000000000 3.64503307363014
=======
 3.64503293119281 0.00000000000000 0.00000000000000
 0.00000000000000 3.64503293119281 0.00000000000000
 0.00000000000000 0.00000000000000 3.64503293119281
>>>>>>> 7cc294e (Central volumes for PBE Z=97-103, and PBEsol and LDA for Z=1-103)
PRIMCOORD
 1 1
 38     0.00000000000000     0.00000000000000     0.00000000000000
