CRYSTAL
PRIMVEC
<<<<<<< HEAD
<<<<<<< HEAD
 0.00000000000000 2.96456371348422 2.96456371348422
 2.96456371348422 0.00000000000000 2.96456371348422
 2.96456371348422 2.96456371348422 0.00000000000000
PRIMCOORD
 2 1
 73     0.00000000000000     0.00000000000000     0.00000000000000
 73     1.48228185674211     1.48228185674211     1.48228185674211
=======
 0.00000000000000 2.96456371277142 2.96456371277142
 2.96456371277142 0.00000000000000 2.96456371277142
 2.96456371277142 2.96456371277142 0.00000000000000
PRIMCOORD
 2 1
 73     0.00000000000000     0.00000000000000     0.00000000000000
 73     1.48228185638571     1.48228185638571     1.48228185638571
>>>>>>> 7cc294e (Central volumes for PBE Z=97-103, and PBEsol and LDA for Z=1-103)
=======
 0.00000000000000 2.96456371348422 2.96456371348422
 2.96456371348422 0.00000000000000 2.96456371348422
 2.96456371348422 2.96456371348422 0.00000000000000
PRIMCOORD
 2 1
 73     0.00000000000000     0.00000000000000     0.00000000000000
 73     1.48228185674211     1.48228185674211     1.48228185674211
>>>>>>> e84099c (Update new central volumes and add script for consistency checks)
