CRYSTAL
PRIMVEC
<<<<<<< HEAD
 0.00000000000000 2.07046558989883 2.07046558989883
 2.07046558989883 0.00000000000000 2.07046558989883
 2.07046558989883 2.07046558989883 0.00000000000000
=======
 0.00000000000000 2.07046558565422 2.07046558565422
 2.07046558565422 0.00000000000000 2.07046558565422
 2.07046558565422 2.07046558565422 0.00000000000000
>>>>>>> 7cc294e (Central volumes for PBE Z=97-103, and PBEsol and LDA for Z=1-103)
PRIMCOORD
 1 1
 73     0.00000000000000     0.00000000000000     0.00000000000000
