CRYSTAL
PRIMVEC
<<<<<<< HEAD
 2.68359036433743 0.00000000000000 0.00000000000000
 0.00000000000000 2.68359036433743 0.00000000000000
 0.00000000000000 0.00000000000000 2.68359036433743
=======
 2.68359031643438 0.00000000000000 0.00000000000000
 0.00000000000000 2.68359031643438 0.00000000000000
 0.00000000000000 0.00000000000000 2.68359031643438
>>>>>>> 7cc294e (Central volumes for PBE Z=97-103, and PBEsol and LDA for Z=1-103)
PRIMCOORD
 1 1
 73     0.00000000000000     0.00000000000000     0.00000000000000
