CRYSTAL
PRIMVEC
<<<<<<< HEAD
 -1.79191720992738 1.79191720992738 1.79191720992738
 1.79191720992738 -1.79191720992738 1.79191720992738
 1.79191720992738 1.79191720992738 -1.79191720992738
=======
 -1.79191678642603 1.79191678642603 1.79191678642603
 1.79191678642603 -1.79191678642603 1.79191678642603
 1.79191678642603 1.79191678642603 -1.79191678642603
>>>>>>> 7cc294e (Central volumes for PBE Z=97-103, and PBEsol and LDA for Z=1-103)
PRIMCOORD
 1 1
 65     0.00000000000000     0.00000000000000     0.00000000000000
