CRYSTAL
PRIMVEC
<<<<<<< HEAD
 0.00000000000000 2.68471202439273 2.68471202439273
 2.68471202439273 0.00000000000000 2.68471202439273
 2.68471202439273 2.68471202439273 0.00000000000000
PRIMCOORD
 2 1
 65     0.00000000000000     0.00000000000000     0.00000000000000
 65     1.34235601219637     1.34235601219637     1.34235601219637
=======
 0.00000000000000 2.68471192070116 2.68471192070116
 2.68471192070116 0.00000000000000 2.68471192070116
 2.68471192070116 2.68471192070116 0.00000000000000
PRIMCOORD
 2 1
 65     0.00000000000000     0.00000000000000     0.00000000000000
 65     1.34235596035058     1.34235596035058     1.34235596035058
>>>>>>> 7cc294e (Central volumes for PBE Z=97-103, and PBEsol and LDA for Z=1-103)
