CRYSTAL
PRIMVEC
<<<<<<< HEAD
 0.00000000000000 2.24287532328777 2.24287532328777
 2.24287532328777 0.00000000000000 2.24287532328777
 2.24287532328777 2.24287532328777 0.00000000000000
=======
 0.00000000000000 2.24287496909621 2.24287496909621
 2.24287496909621 0.00000000000000 2.24287496909621
 2.24287496909621 2.24287496909621 0.00000000000000
>>>>>>> 7cc294e (Central volumes for PBE Z=97-103, and PBEsol and LDA for Z=1-103)
PRIMCOORD
 1 1
 65     0.00000000000000     0.00000000000000     0.00000000000000
