CRYSTAL
PRIMVEC
<<<<<<< HEAD
 -1.51618611214085 1.51618611214085 1.51618611214085
 1.51618611214085 -1.51618611214085 1.51618611214085
 1.51618611214085 1.51618611214085 -1.51618611214085
=======
 -1.51618611073023 1.51618611073023 1.51618611073023
 1.51618611073023 -1.51618611073023 1.51618611073023
 1.51618611073023 1.51618611073023 -1.51618611073023
>>>>>>> 7cc294e (Central volumes for PBE Z=97-103, and PBEsol and LDA for Z=1-103)
PRIMCOORD
 1 1
 43     0.00000000000000     0.00000000000000     0.00000000000000
