CRYSTAL
PRIMVEC
<<<<<<< HEAD
 0.00000000000000 2.72130308810602 2.72130308810602
 2.72130308810602 0.00000000000000 2.72130308810602
 2.72130308810602 2.72130308810602 0.00000000000000
PRIMCOORD
 2 1
 43     0.00000000000000     0.00000000000000     0.00000000000000
 43     1.36065154405301     1.36065154405301     1.36065154405301
=======
 0.00000000000000 2.72130308222033 2.72130308222033
 2.72130308222033 0.00000000000000 2.72130308222033
 2.72130308222033 2.72130308222033 0.00000000000000
PRIMCOORD
 2 1
 43     0.00000000000000     0.00000000000000     0.00000000000000
 43     1.36065154111017     1.36065154111017     1.36065154111017
>>>>>>> 7cc294e (Central volumes for PBE Z=97-103, and PBEsol and LDA for Z=1-103)
