CRYSTAL
PRIMVEC
<<<<<<< HEAD
 0.00000000000000 1.90577550534993 1.90577550534993
 1.90577550534993 0.00000000000000 1.90577550534993
 1.90577550534993 1.90577550534993 0.00000000000000
=======
 0.00000000000000 1.90577550378477 1.90577550378477
 1.90577550378477 0.00000000000000 1.90577550378477
 1.90577550378477 1.90577550378477 0.00000000000000
>>>>>>> 7cc294e (Central volumes for PBE Z=97-103, and PBEsol and LDA for Z=1-103)
PRIMCOORD
 1 1
 43     0.00000000000000     0.00000000000000     0.00000000000000
