CRYSTAL
PRIMVEC
<<<<<<< HEAD
 2.48768015916090 0.00000000000000 0.00000000000000
 0.00000000000000 2.48768015916090 0.00000000000000
 0.00000000000000 0.00000000000000 2.48768015916090
=======
 2.48768007630080 0.00000000000000 0.00000000000000
 0.00000000000000 2.48768007630080 0.00000000000000
 0.00000000000000 0.00000000000000 2.48768007630080
>>>>>>> 7cc294e (Central volumes for PBE Z=97-103, and PBEsol and LDA for Z=1-103)
PRIMCOORD
 1 1
 43     0.00000000000000     0.00000000000000     0.00000000000000
