CRYSTAL
PRIMVEC
<<<<<<< HEAD
 -1.88116656994648 1.88116656994648 1.88116656994648
 1.88116656994648 -1.88116656994648 1.88116656994648
 1.88116656994648 1.88116656994648 -1.88116656994648
=======
 -1.88116654879608 1.88116654879608 1.88116654879608
 1.88116654879608 -1.88116654879608 1.88116654879608
 1.88116654879608 1.88116654879608 -1.88116654879608
>>>>>>> 7cc294e (Central volumes for PBE Z=97-103, and PBEsol and LDA for Z=1-103)
PRIMCOORD
 1 1
 52     0.00000000000000     0.00000000000000     0.00000000000000
