CRYSTAL
PRIMVEC
<<<<<<< HEAD
<<<<<<< HEAD
 0.00000000000000 3.50127103944940 3.50127103944940
 3.50127103944940 0.00000000000000 3.50127103944940
 3.50127103944940 3.50127103944940 0.00000000000000
PRIMCOORD
 2 1
 52     0.00000000000000     0.00000000000000     0.00000000000000
 52     1.75063551972470     1.75063551972470     1.75063551972470
=======
 0.00000000000000 3.50127103786620 3.50127103786620
 3.50127103786620 0.00000000000000 3.50127103786620
 3.50127103786620 3.50127103786620 0.00000000000000
PRIMCOORD
 2 1
 52     0.00000000000000     0.00000000000000     0.00000000000000
 52     1.75063551893310     1.75063551893310     1.75063551893310
>>>>>>> 7cc294e (Central volumes for PBE Z=97-103, and PBEsol and LDA for Z=1-103)
=======
 0.00000000000000 3.50127103944940 3.50127103944940
 3.50127103944940 0.00000000000000 3.50127103944940
 3.50127103944940 3.50127103944940 0.00000000000000
PRIMCOORD
 2 1
 52     0.00000000000000     0.00000000000000     0.00000000000000
 52     1.75063551972470     1.75063551972470     1.75063551972470
>>>>>>> e84099c (Update new central volumes and add script for consistency checks)
