CRYSTAL
PRIMVEC
<<<<<<< HEAD
 0.00000000000000 2.36244930089968 2.36244930089968
 2.36244930089968 0.00000000000000 2.36244930089968
 2.36244930089968 2.36244930089968 0.00000000000000
=======
 0.00000000000000 2.36244927201958 2.36244927201958
 2.36244927201958 0.00000000000000 2.36244927201958
 2.36244927201958 2.36244927201958 0.00000000000000
>>>>>>> 7cc294e (Central volumes for PBE Z=97-103, and PBEsol and LDA for Z=1-103)
PRIMCOORD
 1 1
 52     0.00000000000000     0.00000000000000     0.00000000000000
