CRYSTAL
PRIMVEC
<<<<<<< HEAD
 -1.96074576648137 1.96074576648137 1.96074576648137
 1.96074576648137 -1.96074576648137 1.96074576648137
 1.96074576648137 1.96074576648137 -1.96074576648137
=======
 -1.96074561790627 1.96074561790627 1.96074561790627
 1.96074561790627 -1.96074561790627 1.96074561790627
 1.96074561790627 1.96074561790627 -1.96074561790627
>>>>>>> 7cc294e (Central volumes for PBE Z=97-103, and PBEsol and LDA for Z=1-103)
PRIMCOORD
 1 1
 90     0.00000000000000     0.00000000000000     0.00000000000000
