CRYSTAL
PRIMVEC
<<<<<<< HEAD
 0.00000000000000 3.44811442786893 3.44811442786893
 3.44811442786893 0.00000000000000 3.44811442786893
 3.44811442786893 3.44811442786893 0.00000000000000
PRIMCOORD
 2 1
 90     0.00000000000000     0.00000000000000     0.00000000000000
 90     1.72405721393447     1.72405721393447     1.72405721393447
=======
 0.00000000000000 3.44808586082267 3.44808586082267
 3.44808586082267 0.00000000000000 3.44808586082267
 3.44808586082267 3.44808586082267 0.00000000000000
PRIMCOORD
 2 1
 90     0.00000000000000     0.00000000000000     0.00000000000000
 90     1.72404293041133     1.72404293041133     1.72404293041133
>>>>>>> 7cc294e (Central volumes for PBE Z=97-103, and PBEsol and LDA for Z=1-103)
