CRYSTAL
PRIMVEC
<<<<<<< HEAD
 0.00000000000000 2.45457072569700 2.45457072569700
 2.45457072569700 0.00000000000000 2.45457072569700
 2.45457072569700 2.45457072569700 0.00000000000000
=======
 0.00000000000000 2.45457051577505 2.45457051577505
 2.45457051577505 0.00000000000000 2.45457051577505
 2.45457051577505 2.45457051577505 0.00000000000000
>>>>>>> 7cc294e (Central volumes for PBE Z=97-103, and PBEsol and LDA for Z=1-103)
PRIMCOORD
 1 1
 90     0.00000000000000     0.00000000000000     0.00000000000000
