CRYSTAL
PRIMVEC
<<<<<<< HEAD
<<<<<<< HEAD
 3.17970465173911 0.00000000000000 0.00000000000000
 0.00000000000000 3.17970465173911 0.00000000000000
 0.00000000000000 0.00000000000000 3.17970465173911
=======
 3.17970364718251 0.00000000000000 0.00000000000000
 0.00000000000000 3.17970364718251 0.00000000000000
 0.00000000000000 0.00000000000000 3.17970364718251
>>>>>>> 7cc294e (Central volumes for PBE Z=97-103, and PBEsol and LDA for Z=1-103)
=======
 3.17970465173911 0.00000000000000 0.00000000000000
 0.00000000000000 3.17970465173911 0.00000000000000
 0.00000000000000 0.00000000000000 3.17970465173911
>>>>>>> e84099c (Update new central volumes and add script for consistency checks)
PRIMCOORD
 1 1
 90     0.00000000000000     0.00000000000000     0.00000000000000
