CRYSTAL
PRIMVEC
<<<<<<< HEAD
<<<<<<< HEAD
 -1.58301196349127 1.58301196349127 1.58301196349127
 1.58301196349127 -1.58301196349127 1.58301196349127
 1.58301196349127 1.58301196349127 -1.58301196349127
=======
 -1.58301196288335 1.58301196288335 1.58301196288335
 1.58301196288335 -1.58301196288335 1.58301196288335
 1.58301196288335 1.58301196288335 -1.58301196288335
>>>>>>> 7cc294e (Central volumes for PBE Z=97-103, and PBEsol and LDA for Z=1-103)
=======
 -1.58301196349127 1.58301196349127 1.58301196349127
 1.58301196349127 -1.58301196349127 1.58301196349127
 1.58301196349127 1.58301196349127 -1.58301196349127
>>>>>>> e84099c (Update new central volumes and add script for consistency checks)
PRIMCOORD
 1 1
 22     0.00000000000000     0.00000000000000     0.00000000000000
