CRYSTAL
PRIMVEC
<<<<<<< HEAD
 0.00000000000000 2.67311847799810 2.67311847799810
 2.67311847799810 0.00000000000000 2.67311847799810
 2.67311847799810 2.67311847799810 0.00000000000000
PRIMCOORD
 2 1
 22     0.00000000000000     0.00000000000000     0.00000000000000
 22     1.33655923899905     1.33655923899905     1.33655923899905
=======
 0.00000000000000 2.67311846690789 2.67311846690789
 2.67311846690789 0.00000000000000 2.67311846690789
 2.67311846690789 2.67311846690789 0.00000000000000
PRIMCOORD
 2 1
 22     0.00000000000000     0.00000000000000     0.00000000000000
 22     1.33655923345394     1.33655923345394     1.33655923345394
>>>>>>> 7cc294e (Central volumes for PBE Z=97-103, and PBEsol and LDA for Z=1-103)
