CRYSTAL
PRIMVEC
<<<<<<< HEAD
<<<<<<< HEAD
 0.00000000000000 2.00135331756717 2.00135331756717
 2.00135331756717 0.00000000000000 2.00135331756717
 2.00135331756717 2.00135331756717 0.00000000000000
=======
 0.00000000000000 2.00135331662475 2.00135331662475
 2.00135331662475 0.00000000000000 2.00135331662475
 2.00135331662475 2.00135331662475 0.00000000000000
>>>>>>> 7cc294e (Central volumes for PBE Z=97-103, and PBEsol and LDA for Z=1-103)
=======
 0.00000000000000 2.00135331756717 2.00135331756717
 2.00135331756717 0.00000000000000 2.00135331756717
 2.00135331756717 2.00135331756717 0.00000000000000
>>>>>>> e84099c (Update new central volumes and add script for consistency checks)
PRIMCOORD
 1 1
 22     0.00000000000000     0.00000000000000     0.00000000000000
