CRYSTAL
PRIMVEC
<<<<<<< HEAD
<<<<<<< HEAD
 2.55271071489949 0.00000000000000 0.00000000000000
 0.00000000000000 2.55271071489949 0.00000000000000
 0.00000000000000 0.00000000000000 2.55271071489949
=======
 2.55271070201954 0.00000000000000 0.00000000000000
 0.00000000000000 2.55271070201954 0.00000000000000
 0.00000000000000 0.00000000000000 2.55271070201954
>>>>>>> 7cc294e (Central volumes for PBE Z=97-103, and PBEsol and LDA for Z=1-103)
=======
 2.55271071489949 0.00000000000000 0.00000000000000
 0.00000000000000 2.55271071489949 0.00000000000000
 0.00000000000000 0.00000000000000 2.55271071489949
>>>>>>> e84099c (Update new central volumes and add script for consistency checks)
PRIMCOORD
 1 1
 22     0.00000000000000     0.00000000000000     0.00000000000000
