CRYSTAL
PRIMVEC
<<<<<<< HEAD
 -1.89651636482215 1.89651636482215 1.89651636482215
 1.89651636482215 -1.89651636482215 1.89651636482215
 1.89651636482215 1.89651636482215 -1.89651636482215
=======
 -1.89651632669916 1.89651632669916 1.89651632669916
 1.89651632669916 -1.89651632669916 1.89651632669916
 1.89651632669916 1.89651632669916 -1.89651632669916
>>>>>>> 7cc294e (Central volumes for PBE Z=97-103, and PBEsol and LDA for Z=1-103)
PRIMCOORD
 1 1
 81     0.00000000000000     0.00000000000000     0.00000000000000
