CRYSTAL
PRIMVEC
<<<<<<< HEAD
<<<<<<< HEAD
 0.00000000000000 3.37396600242687 3.37396600242687
 3.37396600242687 0.00000000000000 3.37396600242687
 3.37396600242687 3.37396600242687 0.00000000000000
PRIMCOORD
 2 1
 81     0.00000000000000     0.00000000000000     0.00000000000000
 81     1.68698300121344     1.68698300121344     1.68698300121344
=======
 0.00000000000000 3.37396597885684 3.37396597885684
 3.37396597885684 0.00000000000000 3.37396597885684
 3.37396597885684 3.37396597885684 0.00000000000000
PRIMCOORD
 2 1
 81     0.00000000000000     0.00000000000000     0.00000000000000
 81     1.68698298942842     1.68698298942842     1.68698298942842
>>>>>>> 7cc294e (Central volumes for PBE Z=97-103, and PBEsol and LDA for Z=1-103)
=======
 0.00000000000000 3.37396600242687 3.37396600242687
 3.37396600242687 0.00000000000000 3.37396600242687
 3.37396600242687 3.37396600242687 0.00000000000000
PRIMCOORD
 2 1
 81     0.00000000000000     0.00000000000000     0.00000000000000
 81     1.68698300121344     1.68698300121344     1.68698300121344
>>>>>>> e84099c (Update new central volumes and add script for consistency checks)
