CRYSTAL
PRIMVEC
<<<<<<< HEAD
<<<<<<< HEAD
 3.09013699883951 0.00000000000000 0.00000000000000
 0.00000000000000 3.09013699883951 0.00000000000000
 0.00000000000000 0.00000000000000 3.09013699883951
=======
 3.09013697406160 0.00000000000000 0.00000000000000
 0.00000000000000 3.09013697406160 0.00000000000000
 0.00000000000000 0.00000000000000 3.09013697406160
>>>>>>> 7cc294e (Central volumes for PBE Z=97-103, and PBEsol and LDA for Z=1-103)
=======
 3.09013699883951 0.00000000000000 0.00000000000000
 0.00000000000000 3.09013699883951 0.00000000000000
 0.00000000000000 0.00000000000000 3.09013699883951
>>>>>>> e84099c (Update new central volumes and add script for consistency checks)
PRIMCOORD
 1 1
 81     0.00000000000000     0.00000000000000     0.00000000000000
