CRYSTAL
PRIMVEC
<<<<<<< HEAD
<<<<<<< HEAD
 -1.92395664267533 1.92395664267533 1.92395664267533
 1.92395664267533 -1.92395664267533 1.92395664267533
 1.92395664267533 1.92395664267533 -1.92395664267533
=======
 -1.92395664136276 1.92395664136276 1.92395664136276
 1.92395664136276 -1.92395664136276 1.92395664136276
 1.92395664136276 1.92395664136276 -1.92395664136276
>>>>>>> 7cc294e (Central volumes for PBE Z=97-103, and PBEsol and LDA for Z=1-103)
=======
 -1.92395664267533 1.92395664267533 1.92395664267533
 1.92395664267533 -1.92395664267533 1.92395664267533
 1.92395664267533 1.92395664267533 -1.92395664267533
>>>>>>> e84099c (Update new central volumes and add script for consistency checks)
PRIMCOORD
 1 1
 69     0.00000000000000     0.00000000000000     0.00000000000000
