CRYSTAL
PRIMVEC
<<<<<<< HEAD
<<<<<<< HEAD
 0.00000000000000 2.96418380941686 2.96418380941686
 2.96418380941686 0.00000000000000 2.96418380941686
 2.96418380941686 2.96418380941686 0.00000000000000
PRIMCOORD
 2 1
 69     0.00000000000000     0.00000000000000     0.00000000000000
 69     1.48209190470843     1.48209190470843     1.48209190470843
=======
 0.00000000000000 2.96418379864623 2.96418379864623
 2.96418379864623 0.00000000000000 2.96418379864623
 2.96418379864623 2.96418379864623 0.00000000000000
PRIMCOORD
 2 1
 69     0.00000000000000     0.00000000000000     0.00000000000000
 69     1.48209189932312     1.48209189932312     1.48209189932312
>>>>>>> 7cc294e (Central volumes for PBE Z=97-103, and PBEsol and LDA for Z=1-103)
=======
 0.00000000000000 2.96418380941686 2.96418380941686
 2.96418380941686 0.00000000000000 2.96418380941686
 2.96418380941686 2.96418380941686 0.00000000000000
PRIMCOORD
 2 1
 69     0.00000000000000     0.00000000000000     0.00000000000000
 69     1.48209190470843     1.48209190470843     1.48209190470843
>>>>>>> e84099c (Update new central volumes and add script for consistency checks)
