CRYSTAL
PRIMVEC
<<<<<<< HEAD
 3.07772868218456 0.00000000000000 0.00000000000000
 0.00000000000000 3.07772868218456 0.00000000000000
 0.00000000000000 0.00000000000000 3.07772868218456
=======
 3.07772867077635 0.00000000000000 0.00000000000000
 0.00000000000000 3.07772867077635 0.00000000000000
 0.00000000000000 0.00000000000000 3.07772867077635
>>>>>>> 7cc294e (Central volumes for PBE Z=97-103, and PBEsol and LDA for Z=1-103)
PRIMCOORD
 1 1
 69     0.00000000000000     0.00000000000000     0.00000000000000
