CRYSTAL
PRIMVEC
<<<<<<< HEAD
 -1.67596092948177 1.67596092948177 1.67596092948177
 1.67596092948177 -1.67596092948177 1.67596092948177
 1.67596092948177 1.67596092948177 -1.67596092948177
=======
 -1.67596090152742 1.67596090152742 1.67596090152742
 1.67596090152742 -1.67596090152742 1.67596090152742
 1.67596090152742 1.67596090152742 -1.67596090152742
>>>>>>> 7cc294e (Central volumes for PBE Z=97-103, and PBEsol and LDA for Z=1-103)
PRIMCOORD
 1 1
 92     0.00000000000000     0.00000000000000     0.00000000000000
