CRYSTAL
PRIMVEC
<<<<<<< HEAD
<<<<<<< HEAD
 0.00000000000000 2.86891999850180 2.86891999850180
 2.86891999850180 0.00000000000000 2.86891999850180
 2.86891999850180 2.86891999850180 0.00000000000000
PRIMCOORD
 2 1
 92     0.00000000000000     0.00000000000000     0.00000000000000
 92     1.43445999925090     1.43445999925090     1.43445999925090
=======
 0.00000000000000 2.86891983462372 2.86891983462372
 2.86891983462372 0.00000000000000 2.86891983462372
 2.86891983462372 2.86891983462372 0.00000000000000
PRIMCOORD
 2 1
 92     0.00000000000000     0.00000000000000     0.00000000000000
 92     1.43445991731186     1.43445991731186     1.43445991731186
>>>>>>> 7cc294e (Central volumes for PBE Z=97-103, and PBEsol and LDA for Z=1-103)
=======
 0.00000000000000 2.86891999850180 2.86891999850180
 2.86891999850180 0.00000000000000 2.86891999850180
 2.86891999850180 2.86891999850180 0.00000000000000
PRIMCOORD
 2 1
 92     0.00000000000000     0.00000000000000     0.00000000000000
 92     1.43445999925090     1.43445999925090     1.43445999925090
>>>>>>> e84099c (Update new central volumes and add script for consistency checks)
