CRYSTAL
PRIMVEC
<<<<<<< HEAD
 0.00000000000000 2.15868621531435 2.15868621531435
 2.15868621531435 0.00000000000000 2.15868621531435
 2.15868621531435 2.15868621531435 0.00000000000000
=======
 0.00000000000000 2.15868617208184 2.15868617208184
 2.15868617208184 0.00000000000000 2.15868617208184
 2.15868617208184 2.15868617208184 0.00000000000000
>>>>>>> 7cc294e (Central volumes for PBE Z=97-103, and PBEsol and LDA for Z=1-103)
PRIMCOORD
 1 1
 92     0.00000000000000     0.00000000000000     0.00000000000000
