CRYSTAL
PRIMVEC
<<<<<<< HEAD
 2.62054929986753 0.00000000000000 0.00000000000000
 0.00000000000000 2.62054929986753 0.00000000000000
 0.00000000000000 0.00000000000000 2.62054929986753
=======
 2.62054916574025 0.00000000000000 0.00000000000000
 0.00000000000000 2.62054916574025 0.00000000000000
 0.00000000000000 0.00000000000000 2.62054916574025
>>>>>>> 7cc294e (Central volumes for PBE Z=97-103, and PBEsol and LDA for Z=1-103)
PRIMCOORD
 1 1
 92     0.00000000000000     0.00000000000000     0.00000000000000
