CRYSTAL
PRIMVEC
<<<<<<< HEAD
<<<<<<< HEAD
 0.00000000000000 2.54774207758187 2.54774207758187
 2.54774207758187 0.00000000000000 2.54774207758187
 2.54774207758187 2.54774207758187 0.00000000000000
PRIMCOORD
 2 1
 23     0.00000000000000     0.00000000000000     0.00000000000000
 23     1.27387103879093     1.27387103879093     1.27387103879093
=======
 0.00000000000000 2.54774207515870 2.54774207515870
 2.54774207515870 0.00000000000000 2.54774207515870
 2.54774207515870 2.54774207515870 0.00000000000000
PRIMCOORD
 2 1
 23     0.00000000000000     0.00000000000000     0.00000000000000
 23     1.27387103757935     1.27387103757935     1.27387103757935
>>>>>>> 7cc294e (Central volumes for PBE Z=97-103, and PBEsol and LDA for Z=1-103)
=======
 0.00000000000000 2.54774207758187 2.54774207758187
 2.54774207758187 0.00000000000000 2.54774207758187
 2.54774207758187 2.54774207758187 0.00000000000000
PRIMCOORD
 2 1
 23     0.00000000000000     0.00000000000000     0.00000000000000
 23     1.27387103879093     1.27387103879093     1.27387103879093
>>>>>>> e84099c (Update new central volumes and add script for consistency checks)
