CRYSTAL
PRIMVEC
<<<<<<< HEAD
 2.38246877774217 0.00000000000000 0.00000000000000
 0.00000000000000 2.38246877774217 0.00000000000000
 0.00000000000000 0.00000000000000 2.38246877774217
=======
 2.38246877626093 0.00000000000000 0.00000000000000
 0.00000000000000 2.38246877626093 0.00000000000000
 0.00000000000000 0.00000000000000 2.38246877626093
>>>>>>> 7cc294e (Central volumes for PBE Z=97-103, and PBEsol and LDA for Z=1-103)
PRIMCOORD
 1 1
 23     0.00000000000000     0.00000000000000     0.00000000000000
