CRYSTAL
PRIMVEC
<<<<<<< HEAD
 -1.56781249288769 1.56781249288769 1.56781249288769
 1.56781249288769 -1.56781249288769 1.56781249288769
 1.56781249288769 1.56781249288769 -1.56781249288769
=======
 -1.56781249260193 1.56781249260193 1.56781249260193
 1.56781249260193 -1.56781249260193 1.56781249260193
 1.56781249260193 1.56781249260193 -1.56781249260193
>>>>>>> 7cc294e (Central volumes for PBE Z=97-103, and PBEsol and LDA for Z=1-103)
PRIMCOORD
 1 1
 74     0.00000000000000     0.00000000000000     0.00000000000000
