CRYSTAL
PRIMVEC
<<<<<<< HEAD
 0.00000000000000 2.85501911355905 2.85501911355905
 2.85501911355905 0.00000000000000 2.85501911355905
 2.85501911355905 2.85501911355905 0.00000000000000
PRIMCOORD
 2 1
 74     0.00000000000000     0.00000000000000     0.00000000000000
 74     1.42750955677952     1.42750955677952     1.42750955677952
=======
 0.00000000000000 2.85501911184134 2.85501911184134
 2.85501911184134 0.00000000000000 2.85501911184134
 2.85501911184134 2.85501911184134 0.00000000000000
PRIMCOORD
 2 1
 74     0.00000000000000     0.00000000000000     0.00000000000000
 74     1.42750955592067     1.42750955592067     1.42750955592067
>>>>>>> 7cc294e (Central volumes for PBE Z=97-103, and PBEsol and LDA for Z=1-103)
