CRYSTAL
PRIMVEC
<<<<<<< HEAD
<<<<<<< HEAD
 0.00000000000000 1.98648646488023 1.98648646488023
 1.98648646488023 0.00000000000000 1.98648646488023
 1.98648646488023 1.98648646488023 0.00000000000000
=======
 0.00000000000000 1.98648645724030 1.98648645724030
 1.98648645724030 0.00000000000000 1.98648645724030
 1.98648645724030 1.98648645724030 0.00000000000000
>>>>>>> 7cc294e (Central volumes for PBE Z=97-103, and PBEsol and LDA for Z=1-103)
=======
 0.00000000000000 1.98648646488023 1.98648646488023
 1.98648646488023 0.00000000000000 1.98648646488023
 1.98648646488023 1.98648646488023 0.00000000000000
>>>>>>> e84099c (Update new central volumes and add script for consistency checks)
PRIMCOORD
 1 1
 74     0.00000000000000     0.00000000000000     0.00000000000000
