CRYSTAL
PRIMVEC
<<<<<<< HEAD
<<<<<<< HEAD
 2.59250011734848 0.00000000000000 0.00000000000000
 0.00000000000000 2.59250011734848 0.00000000000000
 0.00000000000000 0.00000000000000 2.59250011734848
=======
 2.59250004050912 0.00000000000000 0.00000000000000
 0.00000000000000 2.59250004050912 0.00000000000000
 0.00000000000000 0.00000000000000 2.59250004050912
>>>>>>> 7cc294e (Central volumes for PBE Z=97-103, and PBEsol and LDA for Z=1-103)
=======
 2.59250011734848 0.00000000000000 0.00000000000000
 0.00000000000000 2.59250011734848 0.00000000000000
 0.00000000000000 0.00000000000000 2.59250011734848
>>>>>>> e84099c (Update new central volumes and add script for consistency checks)
PRIMCOORD
 1 1
 74     0.00000000000000     0.00000000000000     0.00000000000000
