CRYSTAL
PRIMVEC
<<<<<<< HEAD
 -2.34064417523491 2.34064417523491 2.34064417523491
 2.34064417523491 -2.34064417523491 2.34064417523491
 2.34064417523491 2.34064417523491 -2.34064417523491
=======
 -2.34064417417674 2.34064417417674 2.34064417417674
 2.34064417417674 -2.34064417417674 2.34064417417674
 2.34064417417674 2.34064417417674 -2.34064417417674
>>>>>>> 7cc294e (Central volumes for PBE Z=97-103, and PBEsol and LDA for Z=1-103)
PRIMCOORD
 1 1
 54     0.00000000000000     0.00000000000000     0.00000000000000
