CRYSTAL
PRIMVEC
<<<<<<< HEAD
<<<<<<< HEAD
 0.00000000000000 4.67066371705157 4.67066371705157
 4.67066371705157 0.00000000000000 4.67066371705157
 4.67066371705157 4.67066371705157 0.00000000000000
PRIMCOORD
 2 1
 54     0.00000000000000     0.00000000000000     0.00000000000000
 54     2.33533185852578     2.33533185852578     2.33533185852578
=======
 0.00000000000000 4.67066371431959 4.67066371431959
 4.67066371431959 0.00000000000000 4.67066371431959
 4.67066371431959 4.67066371431959 0.00000000000000
PRIMCOORD
 2 1
 54     0.00000000000000     0.00000000000000     0.00000000000000
 54     2.33533185715980     2.33533185715980     2.33533185715980
>>>>>>> 7cc294e (Central volumes for PBE Z=97-103, and PBEsol and LDA for Z=1-103)
=======
 0.00000000000000 4.67066371705157 4.67066371705157
 4.67066371705157 0.00000000000000 4.67066371705157
 4.67066371705157 4.67066371705157 0.00000000000000
PRIMCOORD
 2 1
 54     0.00000000000000     0.00000000000000     0.00000000000000
 54     2.33533185852578     2.33533185852578     2.33533185852578
>>>>>>> e84099c (Update new central volumes and add script for consistency checks)
