CRYSTAL
PRIMVEC
<<<<<<< HEAD
<<<<<<< HEAD
 0.00000000000000 2.92551942333033 2.92551942333033
 2.92551942333033 0.00000000000000 2.92551942333033
 2.92551942333033 2.92551942333033 0.00000000000000
=======
 0.00000000000000 2.92551942108130 2.92551942108130
 2.92551942108130 0.00000000000000 2.92551942108130
 2.92551942108130 2.92551942108130 0.00000000000000
>>>>>>> 7cc294e (Central volumes for PBE Z=97-103, and PBEsol and LDA for Z=1-103)
=======
 0.00000000000000 2.92551942333033 2.92551942333033
 2.92551942333033 0.00000000000000 2.92551942333033
 2.92551942333033 2.92551942333033 0.00000000000000
>>>>>>> e84099c (Update new central volumes and add script for consistency checks)
PRIMCOORD
 1 1
 54     0.00000000000000     0.00000000000000     0.00000000000000
