CRYSTAL
PRIMVEC
<<<<<<< HEAD
 4.05504983840636 0.00000000000000 0.00000000000000
 0.00000000000000 4.05504983840636 0.00000000000000
 0.00000000000000 0.00000000000000 4.05504983840636
=======
 4.05504983334920 0.00000000000000 0.00000000000000
 0.00000000000000 4.05504983334920 0.00000000000000
 0.00000000000000 0.00000000000000 4.05504983334920
>>>>>>> 7cc294e (Central volumes for PBE Z=97-103, and PBEsol and LDA for Z=1-103)
PRIMCOORD
 1 1
 54     0.00000000000000     0.00000000000000     0.00000000000000
