CRYSTAL
PRIMVEC
<<<<<<< HEAD
 -1.95578996156376 1.95578996156376 1.95578996156376
 1.95578996156376 -1.95578996156376 1.95578996156376
 1.95578996156376 1.95578996156376 -1.95578996156376
=======
 -1.95578996150165 1.95578996150165 1.95578996150165
 1.95578996150165 -1.95578996150165 1.95578996150165
 1.95578996150165 1.95578996150165 -1.95578996150165
>>>>>>> 7cc294e (Central volumes for PBE Z=97-103, and PBEsol and LDA for Z=1-103)
PRIMCOORD
 1 1
 39     0.00000000000000     0.00000000000000     0.00000000000000
