CRYSTAL
PRIMVEC
<<<<<<< HEAD
<<<<<<< HEAD
 0.00000000000000 3.31764607100147 3.31764607100147
 3.31764607100147 0.00000000000000 3.31764607100147
 3.31764607100147 3.31764607100147 0.00000000000000
PRIMCOORD
 2 1
 39     0.00000000000000     0.00000000000000     0.00000000000000
 39     1.65882303550073     1.65882303550073     1.65882303550073
=======
 0.00000000000000 3.31764605468367 3.31764605468367
 3.31764605468367 0.00000000000000 3.31764605468367
 3.31764605468367 3.31764605468367 0.00000000000000
PRIMCOORD
 2 1
 39     0.00000000000000     0.00000000000000     0.00000000000000
 39     1.65882302734184     1.65882302734184     1.65882302734184
>>>>>>> 7cc294e (Central volumes for PBE Z=97-103, and PBEsol and LDA for Z=1-103)
=======
 0.00000000000000 3.31764607100147 3.31764607100147
 3.31764607100147 0.00000000000000 3.31764607100147
 3.31764607100147 3.31764607100147 0.00000000000000
PRIMCOORD
 2 1
 39     0.00000000000000     0.00000000000000     0.00000000000000
 39     1.65882303550073     1.65882303550073     1.65882303550073
>>>>>>> e84099c (Update new central volumes and add script for consistency checks)
