CRYSTAL
PRIMVEC
<<<<<<< HEAD
 3.13265626473342 0.00000000000000 0.00000000000000
 0.00000000000000 3.13265626473342 0.00000000000000
 0.00000000000000 0.00000000000000 3.13265626473342
=======
 3.13265625936376 0.00000000000000 0.00000000000000
 0.00000000000000 3.13265625936376 0.00000000000000
 0.00000000000000 0.00000000000000 3.13265625936376
>>>>>>> 7cc294e (Central volumes for PBE Z=97-103, and PBEsol and LDA for Z=1-103)
PRIMCOORD
 1 1
 39     0.00000000000000     0.00000000000000     0.00000000000000
