CRYSTAL
PRIMVEC
<<<<<<< HEAD
 -1.93996036183885 1.93996036183885 1.93996036183885
 1.93996036183885 -1.93996036183885 1.93996036183885
 1.93996036183885 1.93996036183885 -1.93996036183885
=======
 -1.93996036024491 1.93996036024491 1.93996036024491
 1.93996036024491 -1.93996036024491 1.93996036024491
 1.93996036024491 1.93996036024491 -1.93996036024491
>>>>>>> 7cc294e (Central volumes for PBE Z=97-103, and PBEsol and LDA for Z=1-103)
PRIMCOORD
 1 1
 70     0.00000000000000     0.00000000000000     0.00000000000000
