CRYSTAL
PRIMVEC
<<<<<<< HEAD
<<<<<<< HEAD
 0.00000000000000 4.04679580227859 4.04679580227859
 4.04679580227859 0.00000000000000 4.04679580227859
 4.04679580227859 4.04679580227859 0.00000000000000
PRIMCOORD
 2 1
 70     0.00000000000000     0.00000000000000     0.00000000000000
 70     2.02339790113930     2.02339790113930     2.02339790113930
=======
 0.00000000000000 4.04679579389834 4.04679579389834
 4.04679579389834 0.00000000000000 4.04679579389834
 4.04679579389834 4.04679579389834 0.00000000000000
PRIMCOORD
 2 1
 70     0.00000000000000     0.00000000000000     0.00000000000000
 70     2.02339789694917     2.02339789694917     2.02339789694917
>>>>>>> 7cc294e (Central volumes for PBE Z=97-103, and PBEsol and LDA for Z=1-103)
=======
 0.00000000000000 4.04679580227859 4.04679580227859
 4.04679580227859 0.00000000000000 4.04679580227859
 4.04679580227859 4.04679580227859 0.00000000000000
PRIMCOORD
 2 1
 70     0.00000000000000     0.00000000000000     0.00000000000000
 70     2.02339790113930     2.02339790113930     2.02339790113930
>>>>>>> e84099c (Update new central volumes and add script for consistency checks)
