CRYSTAL
PRIMVEC
<<<<<<< HEAD
<<<<<<< HEAD
 3.12509726213983 0.00000000000000 0.00000000000000
 0.00000000000000 3.12509726213983 0.00000000000000
 0.00000000000000 0.00000000000000 3.12509726213983
=======
 3.12509725459976 0.00000000000000 0.00000000000000
 0.00000000000000 3.12509725459976 0.00000000000000
 0.00000000000000 0.00000000000000 3.12509725459976
>>>>>>> 7cc294e (Central volumes for PBE Z=97-103, and PBEsol and LDA for Z=1-103)
=======
 3.12509726213983 0.00000000000000 0.00000000000000
 0.00000000000000 3.12509726213983 0.00000000000000
 0.00000000000000 0.00000000000000 3.12509726213983
>>>>>>> e84099c (Update new central volumes and add script for consistency checks)
PRIMCOORD
 1 1
 70     0.00000000000000     0.00000000000000     0.00000000000000
