CRYSTAL
PRIMVEC
<<<<<<< HEAD
 -1.50680658836069 1.50680658836069 1.50680658836069
 1.50680658836069 -1.50680658836069 1.50680658836069
 1.50680658836069 1.50680658836069 -1.50680658836069
=======
 -1.50680658826823 1.50680658826823 1.50680658826823
 1.50680658826823 -1.50680658826823 1.50680658826823
 1.50680658826823 1.50680658826823 -1.50680658826823
>>>>>>> 7cc294e (Central volumes for PBE Z=97-103, and PBEsol and LDA for Z=1-103)
PRIMCOORD
 1 1
 30     0.00000000000000     0.00000000000000     0.00000000000000
