CRYSTAL
PRIMVEC
<<<<<<< HEAD
<<<<<<< HEAD
 0.00000000000000 2.77609926541395 2.77609926541395
 2.77609926541395 0.00000000000000 2.77609926541395
 2.77609926541395 2.77609926541395 0.00000000000000
PRIMCOORD
 2 1
 30     0.00000000000000     0.00000000000000     0.00000000000000
 30     1.38804963270698     1.38804963270698     1.38804963270698
=======
 0.00000000000000 2.77609920655251 2.77609920655251
 2.77609920655251 0.00000000000000 2.77609920655251
 2.77609920655251 2.77609920655251 0.00000000000000
PRIMCOORD
 2 1
 30     0.00000000000000     0.00000000000000     0.00000000000000
 30     1.38804960327625     1.38804960327625     1.38804960327625
>>>>>>> 7cc294e (Central volumes for PBE Z=97-103, and PBEsol and LDA for Z=1-103)
=======
 0.00000000000000 2.77609926541395 2.77609926541395
 2.77609926541395 0.00000000000000 2.77609926541395
 2.77609926541395 2.77609926541395 0.00000000000000
PRIMCOORD
 2 1
 30     0.00000000000000     0.00000000000000     0.00000000000000
 30     1.38804963270698     1.38804963270698     1.38804963270698
>>>>>>> e84099c (Update new central volumes and add script for consistency checks)
