CRYSTAL
PRIMVEC
<<<<<<< HEAD
 2.52342140745613 0.00000000000000 0.00000000000000
 0.00000000000000 2.52342140745613 0.00000000000000
 0.00000000000000 0.00000000000000 2.52342140745613
=======
 2.52342140271142 0.00000000000000 0.00000000000000
 0.00000000000000 2.52342140271142 0.00000000000000
 0.00000000000000 0.00000000000000 2.52342140271142
>>>>>>> 7cc294e (Central volumes for PBE Z=97-103, and PBEsol and LDA for Z=1-103)
PRIMCOORD
 1 1
 30     0.00000000000000     0.00000000000000     0.00000000000000
