CRYSTAL
PRIMVEC
<<<<<<< HEAD
 -1.74109718563975 1.74109718563975 1.74109718563975
 1.74109718563975 -1.74109718563975 1.74109718563975
 1.74109718563975 1.74109718563975 -1.74109718563975
=======
 -1.74109718503353 1.74109718503353 1.74109718503353
 1.74109718503353 -1.74109718503353 1.74109718503353
 1.74109718503353 1.74109718503353 -1.74109718503353
>>>>>>> 7cc294e (Central volumes for PBE Z=97-103, and PBEsol and LDA for Z=1-103)
PRIMCOORD
 1 1
 40     0.00000000000000     0.00000000000000     0.00000000000000
