CRYSTAL
PRIMVEC
<<<<<<< HEAD
 0.00000000000000 3.02632793745229 3.02632793745229
 3.02632793745229 0.00000000000000 3.02632793745229
 3.02632793745229 3.02632793745229 0.00000000000000
PRIMCOORD
 2 1
 40     0.00000000000000     0.00000000000000     0.00000000000000
 40     1.51316396872615     1.51316396872615     1.51316396872615
=======
 0.00000000000000 3.02632792381749 3.02632792381749
 3.02632792381749 0.00000000000000 3.02632792381749
 3.02632792381749 3.02632792381749 0.00000000000000
PRIMCOORD
 2 1
 40     0.00000000000000     0.00000000000000     0.00000000000000
 40     1.51316396190875     1.51316396190875     1.51316396190875
>>>>>>> 7cc294e (Central volumes for PBE Z=97-103, and PBEsol and LDA for Z=1-103)
