CRYSTAL
PRIMVEC
<<<<<<< HEAD
 0.00000000000000 2.20923927171989 2.20923927171989
 2.20923927171989 0.00000000000000 2.20923927171989
 2.20923927171989 2.20923927171989 0.00000000000000
=======
 0.00000000000000 2.20923926996203 2.20923926996203
 2.20923926996203 0.00000000000000 2.20923926996203
 2.20923926996203 2.20923926996203 0.00000000000000
>>>>>>> 7cc294e (Central volumes for PBE Z=97-103, and PBEsol and LDA for Z=1-103)
PRIMCOORD
 1 1
 40     0.00000000000000     0.00000000000000     0.00000000000000
