CRYSTAL
PRIMVEC
<<<<<<< HEAD
<<<<<<< HEAD
 2.83376908811580 0.00000000000000 0.00000000000000
 0.00000000000000 2.83376908811580 0.00000000000000
 0.00000000000000 0.00000000000000 2.83376908811580
=======
 2.83376903666689 0.00000000000000 0.00000000000000
 0.00000000000000 2.83376903666689 0.00000000000000
 0.00000000000000 0.00000000000000 2.83376903666689
>>>>>>> 7cc294e (Central volumes for PBE Z=97-103, and PBEsol and LDA for Z=1-103)
=======
 2.83376908811580 0.00000000000000 0.00000000000000
 0.00000000000000 2.83376908811580 0.00000000000000
 0.00000000000000 0.00000000000000 2.83376908811580
>>>>>>> e84099c (Update new central volumes and add script for consistency checks)
PRIMCOORD
 1 1
 40     0.00000000000000     0.00000000000000     0.00000000000000
